
     RDKit          3D

 14 14  0  0  0  0  0  0  0  0999 V2000
    0.3990    1.6360    1.3450 O   0  0  0  0  0  0  0  0  0  0  0  0
    0.1510    0.5020    0.8370 C   0  0  0  0  0  0  0  0  0  0  0  0
   -0.8260   -0.3500    1.3380 O   0  0  0  0  0  0  0  0  0  0  0  0
   -1.5000   -1.1640    0.3950 C   0  0  1  0  0  0  0  0  0  0  0  0
   -2.4520   -0.3030   -0.3690 C   0  0  0  0  0  0  0  0  0  0  0  0
   -3.1430   -0.8610   -1.2570 O   0  0  0  0  0  0  0  0  0  0  0  0
   -2.6080    1.0430   -0.1540 O   0  0  0  0  0  0  0  0  0  0  0  0
   -3.4960    1.7570   -0.8920 O   0  0  0  0  0  0  0  0  0  0  0  0
   -0.5370   -1.7730   -0.5680 C   0  0  0  0  0  0  0  0  0  0  0  0
    0.7630   -1.3590   -0.4310 O   0  0  0  0  0  0  0  0  0  0  0  0
    0.9110    0.0140   -0.3480 C   0  0  2  0  0  0  0  0  0  0  0  0
    2.3860    0.2750   -0.0440 C   0  0  0  0  0  0  0  0  0  0  0  0
    2.6380    1.6330    0.0590 O   0  0  0  0  0  0  0  0  0  0  0  0
    3.9160    1.7780    0.3180 O   0  0  0  0  0  0  0  0  0  0  0  0
  1  2  2  0
  2  3  1  0
  2 11  1  0
  3  4  1  0
  4  5  1  6
  4  9  1  0
  5  6  2  0
  5  7  1  0
  7  8  1  0
  9 10  1  0
 10 11  1  0
 11 12  1  1
 12 13  1  0
 13 14  1  0
M  END
