
     RDKit          3D

 14 14  0  0  0  0  0  0  0  0999 V2000
    3.2440   -0.7570   -1.0700 O   0  0  0  0  0  0  0  0  0  0  0  0
    3.6220   -0.7140    0.1260 C   0  0  0  0  0  0  0  0  0  0  0  0
    4.9910   -0.7080    0.3820 O   0  0  0  0  0  0  0  0  0  0  0  0
    2.6640   -0.6750    1.1150 O   0  0  0  0  0  0  0  0  0  0  0  0
    1.3400   -0.6840    0.7620 O   0  0  0  0  0  0  0  0  0  0  0  0
    0.7090    0.4860    0.4300 C   0  0  0  0  0  0  0  0  0  0  0  0
    1.3900    1.5430    0.4640 O   0  0  0  0  0  0  0  0  0  0  0  0
   -0.7110    0.5860    0.0360 C   0  0  2  0  0  0  0  0  0  0  0  0
   -1.6320    0.0840    1.1440 C   0  0  0  0  0  0  0  0  0  0  0  0
   -2.9430    0.2470    0.8160 O   0  0  0  0  0  0  0  0  0  0  0  0
   -3.2810    0.1340   -0.5000 C   0  0  0  0  0  0  0  0  0  0  0  0
   -2.3480   -0.6370   -1.2700 O   0  0  0  0  0  0  0  0  0  0  0  0
   -1.0280   -0.2340   -1.1580 C   0  0  0  0  0  0  0  0  0  0  0  0
   -0.1700   -0.5450   -2.0110 O   0  0  0  0  0  0  0  0  0  0  0  0
  1  2  2  0
  2  3  1  0
  2  4  1  0
  4  5  1  0
  5  6  1  0
  6  7  2  0
  8  6  1  1
  8  9  1  0
  8 13  1  0
  9 10  1  0
 10 11  1  0
 11 12  1  0
 12 13  1  0
 13 14  2  0
M  END
