
     RDKit          3D

 14 14  0  0  0  0  0  0  0  0999 V2000
    1.2830   -1.1290   -1.5990 C   0  0  0  0  0  0  0  0  0  0  0  0
    1.9070   -0.3320   -0.4890 C   0  0  2  0  0  0  0  0  0  0  0  0
    1.3090   -0.6010    0.8600 C   0  0  0  0  0  0  0  0  0  0  0  0
    0.2120    0.1840    1.1570 O   0  0  0  0  0  0  0  0  0  0  0  0
   -0.8810   -0.0440    0.3430 C   0  0  0  0  0  0  0  0  0  0  0  0
   -2.1970    0.0170    1.1100 C   0  0  0  0  0  0  0  0  0  0  0  0
   -3.1990   -0.2530    0.1720 O   0  0  0  0  0  0  0  0  0  0  0  0
   -4.4010   -0.1330    0.6690 O   0  0  0  0  0  0  0  0  0  0  0  0
   -5.1670    0.4070   -0.2680 O   0  0  0  0  0  0  0  0  0  0  0  0
   -4.7160    1.6020   -0.6180 O   0  0  0  0  0  0  0  0  0  0  0  0
    1.9860    1.0090   -0.8120 O   0  0  0  0  0  0  0  0  0  0  0  0
    3.2370    1.1310   -1.4010 C   0  0  0  0  0  0  0  0  0  0  0  0
    3.6980   -0.1860   -1.5580 O   0  0  0  0  0  0  0  0  0  0  0  0
    3.2560   -0.7210   -0.4280 O   0  0  0  0  0  0  0  0  0  0  0  0
  2  1  1  6
  2  3  1  0
  2 11  1  0
  2 14  1  0
  3  4  1  0
  4  5  1  0
  5  6  1  0
  6  7  1  0
  7  8  1  0
  8  9  1  0
  9 10  1  0
 11 12  1  0
 12 13  1  0
 13 14  1  0
M  END
