
     RDKit          3D

 14 14  0  0  0  0  0  0  0  0999 V2000
    3.4390    0.3510   -0.2510 O   0  0  0  0  0  0  0  0  0  0  0  0
    2.2090    0.3710   -0.5190 C   0  0  0  0  0  0  0  0  0  0  0  0
    1.7950    1.1740   -1.5540 O   0  0  0  0  0  0  0  0  0  0  0  0
    1.3250   -0.4730    0.3050 C   0  0  0  0  0  0  0  0  0  0  0  0
   -0.1110   -0.4040   -0.0640 C   0  0  2  0  0  0  0  0  0  0  0  0
   -0.7050    0.9280    0.0360 C   0  0  0  0  0  0  0  0  0  0  0  0
   -1.3670    1.3940   -0.9320 O   0  0  0  0  0  0  0  0  0  0  0  0
   -0.5790    1.7180    1.1550 O   0  0  0  0  0  0  0  0  0  0  0  0
   -1.1210    2.9370    1.2530 O   0  0  0  0  0  0  0  0  0  0  0  0
   -0.8650   -1.3330    0.8700 C   0  0  0  0  0  0  0  0  0  0  0  0
   -1.9840   -1.6780    0.1210 O   0  0  0  0  0  0  0  0  0  0  0  0
   -1.5740   -1.7170   -1.2050 C   0  0  0  0  0  0  0  0  0  0  0  0
   -2.2200   -2.3360   -2.1060 O   0  0  0  0  0  0  0  0  0  0  0  0
   -0.3970   -0.9870   -1.3190 O   0  0  0  0  0  0  0  0  0  0  0  0
  1  2  2  0
  2  3  1  0
  2  4  1  0
  5  4  1  1
  5  6  1  0
  5 10  1  0
  5 14  1  0
  6  7  2  0
  6  8  1  0
  8  9  1  0
 10 11  1  0
 11 12  1  0
 12 13  2  0
 12 14  1  0
M  END
