
     RDKit          3D

 10  9  0  0  0  0  0  0  0  0999 V2000
    3.1470    0.3990   -0.9980 C   0  0  0  0  0  0  0  0  0  0  0  0
    2.2030   -0.0260   -0.0770 O   0  0  0  0  0  0  0  0  0  0  0  0
    0.9190   -0.0400   -0.5660 C   0  0  0  0  0  0  0  0  0  0  0  0
    0.0020   -0.5200    0.5370 C   0  0  1  0  0  0  0  0  0  0  0  0
    0.0750    0.3330    1.6440 O   0  0  0  0  0  0  0  0  0  0  0  0
   -1.4260   -0.5960    0.1160 C   0  0  1  0  0  0  0  0  0  0  0  0
   -1.6300   -1.4210   -0.9840 O   0  0  0  0  0  0  0  0  0  0  0  0
   -2.1390   -1.1870    1.1800 O   0  0  0  0  0  0  0  0  0  0  0  0
   -2.0460    0.7700   -0.0940 C   0  0  0  0  0  0  0  0  0  0  0  0
   -1.8580    1.6060    0.9820 O   0  0  0  0  0  0  0  0  0  0  0  0
  1  2  1  0
  2  3  1  0
  3  4  1  0
  4  5  1  1
  4  6  1  0
  6  7  1  6
  6  8  1  0
  6  9  1  0
  9 10  1  0
M  END
