
     RDKit          3D

 10  9  0  0  0  0  0  0  0  0999 V2000
    2.7110    0.6480    0.6010 C   0  0  0  0  0  0  0  0  0  0  0  0
    1.8850    0.8840   -0.5010 O   0  0  0  0  0  0  0  0  0  0  0  0
    0.8050   -0.0390   -0.5310 C   0  0  2  0  0  0  0  0  0  0  0  0
    0.9330   -0.8470   -1.7490 C   0  0  0  0  0  0  0  0  0  0  0  0
   -0.0630   -1.8040   -1.9100 O   0  0  0  0  0  0  0  0  0  0  0  0
   -0.3030    0.7200   -0.3400 O   0  0  0  0  0  0  0  0  0  0  0  0
   -1.0030    0.6130    0.8030 C   0  0  1  0  0  0  0  0  0  0  0  0
   -1.0690    1.9030    1.3820 O   0  0  0  0  0  0  0  0  0  0  0  0
   -2.4250    0.2040    0.4960 C   0  0  0  0  0  0  0  0  0  0  0  0
   -2.4560   -1.0170   -0.1480 O   0  0  0  0  0  0  0  0  0  0  0  0
  1  2  1  0
  2  3  1  0
  3  4  1  6
  3  6  1  0
  4  5  1  0
  6  7  1  0
  7  8  1  6
  7  9  1  0
  9 10  1  0
M  END
