
     RDKit          3D

  9  9  0  0  0  0  0  0  0  0999 V2000
    2.6010   -0.3940    0.2410 C   0  0  0  0  0  0  0  0  0  0  0  0
    1.2440   -0.5470    0.0260 O   0  0  0  0  0  0  0  0  0  0  0  0
    0.4990    0.5600    0.3600 C   0  0  2  0  0  0  0  0  0  0  0  0
   -0.4890    0.1180    1.2510 O   0  0  0  0  0  0  0  0  0  0  0  0
   -1.1090   -0.8580    0.4710 C   0  0  1  0  0  0  0  0  0  0  0  0
   -2.2630   -1.3480    1.0750 O   0  0  0  0  0  0  0  0  0  0  0  0
   -1.4650   -0.0780   -0.7750 C   0  0  0  0  0  0  0  0  0  0  0  0
   -0.3780    0.9800   -0.8270 C   0  0  1  0  0  0  0  0  0  0  0  0
   -0.9010    2.2400   -0.6470 O   0  0  0  0  0  0  0  0  0  0  0  0
  1  2  1  0
  3  2  1  6
  3  4  1  0
  3  8  1  0
  4  5  1  0
  5  6  1  1
  5  7  1  0
  7  8  1  0
  8  9  1  1
M  END
