
     RDKit          3D

  9  9  0  0  0  0  0  0  0  0999 V2000
    2.7000   -0.1150    0.0650 O   0  0  0  0  0  0  0  0  0  0  0  0
    1.8600   -0.7070   -0.8590 C   0  0  0  0  0  0  0  0  0  0  0  0
    0.7300   -1.2580   -0.3200 O   0  0  0  0  0  0  0  0  0  0  0  0
   -0.0480   -0.3200    0.3400 C   0  0  1  0  0  0  0  0  0  0  0  0
    0.6180    0.2980    1.3890 O   0  0  0  0  0  0  0  0  0  0  0  0
   -0.5340    0.7340   -0.6420 C   0  0  0  0  0  0  0  0  0  0  0  0
   -1.8800    1.0930   -0.0520 C   0  0  0  0  0  0  0  0  0  0  0  0
   -2.1460    0.2120    0.9620 O   0  0  0  0  0  0  0  0  0  0  0  0
   -1.3260   -0.8760    0.8560 C   0  0  0  0  0  0  0  0  0  0  0  0
  1  2  1  0
  2  3  1  0
  3  4  1  0
  4  5  1  1
  4  6  1  0
  4  9  1  0
  6  7  1  0
  7  8  1  0
  8  9  1  0
M  END
