
     RDKit          3D

  9  9  0  0  0  0  0  0  0  0999 V2000
    2.8090   -0.5390    0.3300 C   0  0  0  0  0  0  0  0  0  0  0  0
    1.8580    0.3210   -0.2340 O   0  0  0  0  0  0  0  0  0  0  0  0
    0.5910   -0.1810    0.0930 C   0  0  1  0  0  0  0  0  0  0  0  0
   -0.2190    0.8630    0.8400 C   0  0  0  0  0  0  0  0  0  0  0  0
   -1.6150    0.6730    0.2970 C   0  0  1  0  0  0  0  0  0  0  0  0
   -2.0690    1.7910   -0.4000 O   0  0  0  0  0  0  0  0  0  0  0  0
   -1.4080   -0.4370   -0.7090 C   0  0  2  0  0  0  0  0  0  0  0  0
   -1.7180   -1.6410   -0.0840 O   0  0  0  0  0  0  0  0  0  0  0  0
   -0.0870   -0.3560   -1.1080 O   0  0  0  0  0  0  0  0  0  0  0  0
  1  2  1  0
  3  2  1  6
  3  4  1  0
  3  9  1  0
  4  5  1  0
  5  6  1  6
  5  7  1  0
  7  8  1  1
  7  9  1  0
M  END
