
     RDKit          3D

 10 10  0  0  0  0  0  0  0  0999 V2000
    0.0980   -1.1350    1.7000 O   0  0  0  0  0  0  0  0  0  0  0  0
   -0.0320   -1.1160    0.3060 C   0  0  1  0  0  0  0  0  0  0  0  0
   -1.3380   -0.4380   -0.0620 C   0  0  2  0  0  0  0  0  0  0  0  0
   -1.7240   -0.8170   -1.3360 O   0  0  0  0  0  0  0  0  0  0  0  0
   -1.2420    1.0610    0.0210 C   0  0  0  0  0  0  0  0  0  0  0  0
   -0.0820    1.3830    0.7300 O   0  0  0  0  0  0  0  0  0  0  0  0
    1.0710    1.1010   -0.0040 C   0  0  1  0  0  0  0  0  0  0  0  0
    2.1580    1.5380    0.7380 O   0  0  0  0  0  0  0  0  0  0  0  0
    1.1690   -0.3880   -0.2400 C   0  0  2  0  0  0  0  0  0  0  0  0
    1.3110   -0.7150   -1.5780 O   0  0  0  0  0  0  0  0  0  0  0  0
  2  1  1  1
  2  3  1  0
  2  9  1  0
  3  4  1  6
  3  5  1  0
  5  6  1  0
  6  7  1  0
  7  8  1  1
  7  9  1  0
  9 10  1  6
M  END
