
     RDKit          3D

  9  9  0  0  0  0  0  0  0  0999 V2000
   -1.2890    1.2030   -0.0150 C   0  0  0  0  0  0  0  0  0  0  0  0
   -1.1520   -0.2990    0.1260 C   0  0  1  0  0  0  0  0  0  0  0  0
   -1.6560   -0.6630    1.3640 O   0  0  0  0  0  0  0  0  0  0  0  0
   -1.8890   -0.9750   -0.8400 O   0  0  0  0  0  0  0  0  0  0  0  0
    0.3080   -0.6930    0.0870 C   0  0  1  0  0  0  0  0  0  0  0  0
    1.0030   -0.2240   -1.1610 C   0  0  0  0  0  0  0  0  0  0  0  0
    1.6250    0.9550   -0.7030 O   0  0  0  0  0  0  0  0  0  0  0  0
    2.1090    0.4890    0.5380 C   0  0  0  0  0  0  0  0  0  0  0  0
    0.9490   -0.0080    1.1160 O   0  0  0  0  0  0  0  0  0  0  0  0
  2  1  1  6
  2  3  1  0
  2  4  1  0
  2  5  1  0
  5  6  1  6
  5  9  1  0
  6  7  1  0
  7  8  1  0
  8  9  1  0
M  END
