
     RDKit          3D

 22 25  0  0  0  0  0  0  0  0999 V2000
   -1.1560    2.9350    0.5020 N   0  0  0  0  0  0  0  0  0  0  0  0
   -2.0050    1.8360    0.3130 C   0  0  0  0  0  0  0  0  0  0  0  0
   -3.3810    1.9870    0.3890 C   0  0  0  0  0  0  0  0  0  0  0  0
   -3.8820    3.2210    0.6490 F   0  0  0  0  0  0  0  0  0  0  0  0
   -4.2420    0.8990    0.2040 C   0  0  0  0  0  0  0  0  0  0  0  0
   -3.7540   -0.3650   -0.0620 C   0  0  0  0  0  0  0  0  0  0  0  0
   -2.3960   -0.4410   -0.1250 C   0  0  0  0  0  0  0  0  0  0  0  0
   -1.5000    0.5780    0.0470 C   0  0  0  0  0  0  0  0  0  0  0  0
   -0.0530    0.3420   -0.0100 C   0  0  0  0  0  0  0  0  0  0  0  0
    0.3300   -1.0140   -0.0140 N   0  0  0  0  0  0  0  0  0  0  0  0
    1.3840   -1.3390   -0.9470 C   0  0  0  0  0  0  0  0  0  0  0  0
    2.5690   -0.5220   -0.5700 C   0  0  0  0  0  0  0  0  0  0  0  0
    3.5570   -0.9270    0.3270 C   0  0  0  0  0  0  0  0  0  0  0  0
    4.4340    0.0460    0.4100 O   0  0  0  0  0  0  0  0  0  0  0  0
    4.1000    1.0470   -0.3570 C   0  0  0  0  0  0  0  0  0  0  0  0
    5.0090    2.5700   -0.5470 S   0  0  0  0  0  0  0  0  0  0  0  0
    6.4400    2.5380    0.4540 N   0  0  0  0  0  0  0  0  0  0  0  0
    2.9430    0.6960   -0.9650 N   0  0  0  0  0  0  0  0  0  0  0  0
   -0.6020   -2.0480    0.2210 C   0  0  0  0  0  0  0  0  0  0  0  0
   -1.9530   -1.8170   -0.4200 C   0  0  1  0  0  0  0  0  0  0  0  0
   -3.0990   -2.5910    0.1770 C   0  0  0  0  0  0  0  0  0  0  0  0
   -4.3090   -1.7220   -0.2800 C   0  0  0  0  0  0  0  0  0  0  0  0
  1  2  1  0
  2  3  2  0
  2  8  1  0
  3  4  1  0
  3  5  1  0
  5  6  2  0
  6  7  1  0
  6 22  1  0
  7  8  2  0
  7 20  1  0
  8  9  1  0
  9 10  1  0
 10 11  1  0
 10 19  1  0
 11 12  1  0
 12 13  2  0
 12 18  1  0
 13 14  1  0
 14 15  1  0
 15 16  1  0
 15 18  2  0
 16 17  1  0
 20 19  1  1
 20 21  1  0
 21 22  1  0
M  CHG  1  17   1
M  END
