
     RDKit          3D

 22 24  0  0  0  0  0  0  0  0999 V2000
    4.5590    2.8240    0.0780 N   0  0  0  0  0  0  0  0  0  0  0  0
    3.5250    1.8290    0.1080 C   0  0  0  0  0  0  0  0  0  0  0  0
    4.0680    0.4500    0.0820 C   0  0  0  0  0  0  0  0  0  0  0  0
    5.4060    0.3220    0.0350 N   0  0  0  0  0  0  0  0  0  0  0  0
    5.9530   -0.9060    0.0090 C   0  0  0  0  0  0  0  0  0  0  0  0
    5.1290   -2.0030    0.0320 C   0  0  0  0  0  0  0  0  0  0  0  0
    3.7320   -1.8640    0.0810 C   0  0  0  0  0  0  0  0  0  0  0  0
    3.2030   -0.6310    0.1060 C   0  0  0  0  0  0  0  0  0  0  0  0
    1.8220   -0.3790    0.1560 N   0  0  0  0  0  0  0  0  0  0  0  0
    0.7820   -1.3220    0.1870 C   0  0  0  0  0  0  0  0  0  0  0  0
    0.9930   -2.5300    0.1720 O   0  0  0  0  0  0  0  0  0  0  0  0
   -0.5960   -0.9080    0.2370 N   0  0  0  0  0  0  0  0  0  0  0  0
   -1.6720   -1.8750    0.2690 C   0  0  0  0  0  0  0  0  0  0  0  0
   -2.9520   -1.1100    0.3180 C   0  0  0  0  0  0  0  0  0  0  0  0
   -3.7510   -0.6490   -0.6600 C   0  0  0  0  0  0  0  0  0  0  0  0
   -4.8840    0.0320   -0.3250 C   0  0  0  0  0  0  0  0  0  0  0  0
   -5.1350    0.2030    0.9920 C   0  0  0  0  0  0  0  0  0  0  0  0
   -3.7370   -0.6180    1.8090 S   0  0  0  0  0  0  0  0  0  0  0  0
   -6.2550    0.8750    1.2240 C   0  0  0  0  0  0  0  0  0  0  0  0
   -6.8020    1.2200    2.4070 F   0  0  0  0  0  0  0  0  0  0  0  0
   -6.8430    1.2050   -0.0910 C   0  0  0  0  0  0  0  0  0  0  0  0
   -5.8810    0.6160   -1.0380 C   0  0  0  0  0  0  0  0  0  0  0  0
  1  2  1  0
  2  3  1  0
  3  4  2  0
  3  8  1  0
  4  5  1  0
  5  6  2  0
  6  7  1  0
  7  8  2  0
  8  9  1  0
  9 10  1  0
 10 11  2  0
 10 12  1  0
 12 13  1  0
 13 14  1  0
 14 15  2  0
 14 18  1  0
 15 16  1  0
 16 17  1  0
 16 22  2  0
 17 18  1  0
 17 19  2  0
 19 20  1  0
 19 21  1  0
 21 22  1  0
M  CHG  1   1   1
M  END
