
     RDKit          3D

 16 18  0  0  0  0  0  0  0  0999 V2000
   -3.9810   -1.5900    0.1290 C   0  0  0  0  0  0  0  0  0  0  0  0
   -3.1440   -0.3580   -0.0560 C   0  0  0  0  0  0  0  0  0  0  0  0
   -3.6330    0.8140   -0.2820 N   0  0  0  0  0  0  0  0  0  0  0  0
   -2.5540    1.7920   -0.4130 C   0  0  0  0  0  0  0  0  0  0  0  0
   -1.3250    0.9950   -0.2250 C   0  0  0  0  0  0  0  0  0  0  0  0
   -1.6880   -0.3180   -0.0070 C   0  0  0  0  0  0  0  0  0  0  0  0
   -0.7470   -1.3050    0.2030 C   0  0  0  0  0  0  0  0  0  0  0  0
    0.5960   -0.9880    0.1980 C   0  0  0  0  0  0  0  0  0  0  0  0
    1.5770   -1.9440    0.4040 C   0  0  0  0  0  0  0  0  0  0  0  0
    2.8880   -1.5740    0.3890 C   0  0  0  0  0  0  0  0  0  0  0  0
    3.3250   -0.2830    0.1780 C   0  0  0  0  0  0  0  0  0  0  0  0
    4.7060    0.0650    0.1690 N   0  0  0  0  0  0  0  0  0  0  0  0
    2.3470    0.6690   -0.0280 C   0  0  0  0  0  0  0  0  0  0  0  0
    0.9920    0.3170   -0.0170 C   0  0  0  0  0  0  0  0  0  0  0  0
    0.0190    1.2930   -0.2270 C   0  0  0  0  0  0  0  0  0  0  0  0
    0.4040    2.6260   -0.4470 N   0  0  0  0  0  0  0  0  0  0  0  0
  1  2  1  0
  2  3  2  0
  2  6  1  0
  3  4  1  0
  4  5  1  0
  5  6  2  0
  5 15  1  0
  6  7  1  0
  7  8  2  0
  8  9  1  0
  8 14  1  0
  9 10  2  0
 10 11  1  0
 11 12  1  0
 11 13  2  0
 13 14  1  0
 14 15  2  0
 15 16  1  0
M  END
