
     RDKit          3D

 16 18  0  0  0  0  0  0  0  0999 V2000
   -4.4740    0.1910   -0.7050 N   0  0  0  0  0  0  0  0  0  0  0  0
   -3.1230    0.2400   -0.3000 C   0  0  0  0  0  0  0  0  0  0  0  0
   -2.7330    1.5130   -0.1150 C   0  0  0  0  0  0  0  0  0  0  0  0
   -1.4760    2.1290    0.2920 C   0  0  0  0  0  0  0  0  0  0  0  0
   -0.2690    1.6140    0.4530 C   0  0  0  0  0  0  0  0  0  0  0  0
    0.3660    0.2990    0.3200 C   0  0  0  0  0  0  0  0  0  0  0  0
   -0.0770   -1.0030    0.3720 C   0  0  0  0  0  0  0  0  0  0  0  0
    0.9680   -1.8520    0.1770 N   0  0  0  0  0  0  0  0  0  0  0  0
    2.0700   -1.0920    0.0010 C   0  0  0  0  0  0  0  0  0  0  0  0
    3.3990   -1.4290   -0.2330 C   0  0  0  0  0  0  0  0  0  0  0  0
    4.3470   -0.4290   -0.3770 C   0  0  0  0  0  0  0  0  0  0  0  0
    3.9860    0.9050   -0.2900 C   0  0  0  0  0  0  0  0  0  0  0  0
    2.6530    1.2410   -0.0550 C   0  0  0  0  0  0  0  0  0  0  0  0
    1.7240    0.2390    0.0860 C   0  0  0  0  0  0  0  0  0  0  0  0
   -1.4100   -1.5990    0.5940 C   0  0  0  0  0  0  0  0  0  0  0  0
   -2.4680   -1.0060   -0.1720 N   0  0  0  0  0  0  0  0  0  0  0  0
  1  2  1  0
  2  3  2  0
  2 16  1  0
  3  4  1  0
  4  5  2  0
  5  6  1  0
  6  7  2  0
  6 14  1  0
  7  8  1  0
  7 15  1  0
  8  9  1  0
  9 10  2  0
  9 14  1  0
 10 11  1  0
 11 12  2  0
 12 13  1  0
 13 14  2  0
 15 16  1  0
M  END
