
     RDKit          3D

 16 18  0  0  0  0  0  0  0  0999 V2000
    4.7590    0.3960   -1.0880 C   0  0  0  0  0  0  0  0  0  0  0  0
    3.3650    0.5560   -1.3640 N   0  0  0  0  0  0  0  0  0  0  0  0
    2.3840    0.1530   -0.4390 C   0  0  0  0  0  0  0  0  0  0  0  0
    2.7330   -0.4110    0.7700 C   0  0  0  0  0  0  0  0  0  0  0  0
    1.7680   -0.8150    1.6970 C   0  0  0  0  0  0  0  0  0  0  0  0
    0.4270   -0.6560    1.4210 C   0  0  0  0  0  0  0  0  0  0  0  0
   -0.7040   -0.9420    2.0990 N   0  0  0  0  0  0  0  0  0  0  0  0
   -1.7860   -0.5900    1.3910 C   0  0  0  0  0  0  0  0  0  0  0  0
   -3.1480   -0.6390    1.5680 C   0  0  0  0  0  0  0  0  0  0  0  0
   -4.0000   -0.1660    0.5840 C   0  0  0  0  0  0  0  0  0  0  0  0
   -3.5320    0.3680   -0.6010 C   0  0  0  0  0  0  0  0  0  0  0  0
   -4.4320    0.8520   -1.6070 N   0  0  0  0  0  0  0  0  0  0  0  0
   -2.1690    0.4170   -0.7770 C   0  0  0  0  0  0  0  0  0  0  0  0
   -1.3060   -0.0600    0.2140 C   0  0  0  0  0  0  0  0  0  0  0  0
    0.0760   -0.0910    0.2110 C   0  0  0  0  0  0  0  0  0  0  0  0
    1.0310    0.3080   -0.7050 C   0  0  0  0  0  0  0  0  0  0  0  0
  1  2  1  0
  2  3  1  0
  3  4  2  0
  3 16  1  0
  4  5  1  0
  5  6  2  0
  6  7  1  0
  6 15  1  0
  7  8  1  0
  8  9  2  0
  8 14  1  0
  9 10  1  0
 10 11  2  0
 11 12  1  0
 11 13  1  0
 13 14  2  0
 14 15  1  0
 15 16  2  0
M  END
