
     RDKit          3D

 29 32  0  0  0  0  0  0  0  0999 V2000
    3.0910    1.5480   -1.3470 O   0  0  0  0  0  0  0  0  0  0  0  0
    3.7640    0.9140   -0.4750 C   0  0  0  0  0  0  0  0  0  0  0  0
    4.9440    1.4780   -0.0560 O   0  0  0  0  0  0  0  0  0  0  0  0
    5.4310    2.7210   -0.5520 C   0  0  0  0  0  0  0  0  0  0  0  0
    6.7540    2.9690    0.1730 C   0  0  0  0  0  0  0  0  0  0  0  0
    6.3560    3.0260    1.9160 Cl  0  0  0  0  0  0  0  0  0  0  0  0
    3.2630   -0.3650    0.0350 C   0  0  0  0  0  0  0  0  0  0  0  0
    3.9540   -1.1010    0.9860 C   0  0  0  0  0  0  0  0  0  0  0  0
    3.1450   -2.2250    1.1870 C   0  0  0  0  0  0  0  0  0  0  0  0
    2.0400   -2.1110    0.3690 C   0  0  0  0  0  0  0  0  0  0  0  0
    0.9670   -3.0940    0.2990 C   0  0  0  0  0  0  0  0  0  0  0  0
    0.9830   -4.2390    1.0680 C   0  0  0  0  0  0  0  0  0  0  0  0
   -0.0380   -5.1610    0.9920 C   0  0  0  0  0  0  0  0  0  0  0  0
   -1.0430   -4.8920    0.1380 N   0  0  0  0  0  0  0  0  0  0  0  0
   -1.1120   -3.8090   -0.6240 C   0  0  0  0  0  0  0  0  0  0  0  0
   -0.1090   -2.8770   -0.5670 C   0  0  0  0  0  0  0  0  0  0  0  0
   -0.1020   -1.4030   -1.5390 S   0  0  0  0  0  0  0  0  0  0  0  0
   -0.9310   -0.1110   -0.6130 C   0  0  0  0  0  0  0  0  0  0  0  0
   -1.4560   -0.2010    0.5630 N   0  0  0  0  0  0  0  0  0  0  0  0
   -2.0050    0.9960    0.9540 O   0  0  0  0  0  0  0  0  0  0  0  0
   -2.1110    1.7930   -0.1850 C   0  0  2  0  0  0  0  0  0  0  0  0
   -3.4910    1.8700   -0.7610 C   0  0  2  0  0  0  0  0  0  0  0  0
   -4.4020    2.4520    0.3000 C   0  0  0  0  0  0  0  0  0  0  0  0
   -5.0940    1.3910    1.1050 C   0  0  0  0  0  0  0  0  0  0  0  0
   -5.7520    0.5420    0.2230 O   0  0  0  0  0  0  0  0  0  0  0  0
   -4.7830   -0.2520   -0.3790 C   0  0  0  0  0  0  0  0  0  0  0  0
   -3.9920    0.5910   -1.3390 C   0  0  0  0  0  0  0  0  0  0  0  0
   -1.1310    1.2440   -1.0680 N   0  0  0  0  0  0  0  0  0  0  0  0
    2.1760   -1.0030   -0.2730 O   0  0  0  0  0  0  0  0  0  0  0  0
  1  2  2  0
  2  3  1  0
  2  7  1  0
  3  4  1  0
  4  5  1  0
  5  6  1  0
  7  8  2  0
  7 29  1  0
  8  9  1  0
  9 10  2  0
 10 11  1  0
 10 29  1  0
 11 12  2  0
 11 16  1  0
 12 13  1  0
 13 14  2  0
 14 15  1  0
 15 16  2  0
 16 17  1  0
 17 18  1  0
 18 19  2  0
 18 28  1  0
 19 20  1  0
 20 21  1  0
 21 22  1  0
 21 28  1  6
 22 23  1  1
 22 27  1  0
 23 24  1  0
 24 25  1  0
 25 26  1  0
 26 27  1  0
M  END
