
     RDKit          3D

 24 26  0  0  0  0  0  0  0  0999 V2000
   -3.8770    2.7510    1.1570 C   0  0  0  0  0  0  0  0  0  0  0  0
   -3.8100    1.7980    0.2980 C   0  0  0  0  0  0  0  0  0  0  0  0
   -5.0050    1.4120   -0.5340 C   0  0  0  0  0  0  0  0  0  0  0  0
   -5.1590   -0.0160   -0.2760 N   0  0  0  0  0  0  0  0  0  0  0  0
   -6.1960   -0.9160    0.1460 C   0  0  0  0  0  0  0  0  0  0  0  0
   -5.8510   -2.1880   -0.5990 C   0  0  0  0  0  0  0  0  0  0  0  0
   -4.4650   -2.0900   -0.8620 O   0  0  0  0  0  0  0  0  0  0  0  0
   -4.0040   -0.8100   -0.4790 C   0  0  0  0  0  0  0  0  0  0  0  0
   -2.7600   -0.3610   -0.3180 C   0  0  0  0  0  0  0  0  0  0  0  0
   -2.5450    1.0120    0.0910 C   0  0  0  0  0  0  0  0  0  0  0  0
   -1.4390    1.6490    0.2860 C   0  0  0  0  0  0  0  0  0  0  0  0
   -0.0710    1.2870    0.2010 C   0  0  0  0  0  0  0  0  0  0  0  0
    0.7840    2.2580    0.4830 O   0  0  0  0  0  0  0  0  0  0  0  0
    0.5880    0.0960   -0.1230 N   0  0  0  0  0  0  0  0  0  0  0  0
    2.0210   -0.0540   -0.1640 C   0  0  0  0  0  0  0  0  0  0  0  0
    2.9020    0.9460   -0.4240 C   0  0  0  0  0  0  0  0  0  0  0  0
    4.2920    0.7250   -0.4140 C   0  0  0  0  0  0  0  0  0  0  0  0
    5.1500    1.7720   -0.6820 O   0  0  0  0  0  0  0  0  0  0  0  0
    6.5490    1.6190   -0.6890 C   0  0  0  0  0  0  0  0  0  0  0  0
    4.7510   -0.5320   -0.1370 C   0  0  0  0  0  0  0  0  0  0  0  0
    3.8900   -1.5740    0.1300 C   0  0  0  0  0  0  0  0  0  0  0  0
    4.3940   -2.8330    0.4060 O   0  0  0  0  0  0  0  0  0  0  0  0
    5.7870   -3.0540    0.4140 C   0  0  0  0  0  0  0  0  0  0  0  0
    2.5240   -1.3380    0.1170 C   0  0  0  0  0  0  0  0  0  0  0  0
  1  2  2  0
  2  3  1  0
  2 10  1  0
  3  4  1  0
  4  5  1  0
  4  8  1  0
  5  6  1  0
  6  7  1  0
  7  8  1  0
  8  9  2  0
  9 10  1  0
 10 11  2  3
 11 12  1  0
 12 13  2  0
 12 14  1  0
 14 15  1  0
 15 16  2  0
 15 24  1  0
 16 17  1  0
 17 18  1  0
 17 20  2  0
 18 19  1  0
 20 21  1  0
 21 22  1  0
 21 24  2  0
 22 23  1  0
M  END
