
     RDKit          3D

 24 26  0  0  0  0  0  0  0  0999 V2000
    6.1500   -1.7970    0.1400 C   0  0  0  0  0  0  0  0  0  0  0  0
    4.9660   -1.0170   -0.0850 O   0  0  0  0  0  0  0  0  0  0  0  0
    4.6520   -0.0140    0.7920 C   0  0  0  0  0  0  0  0  0  0  0  0
    5.4160    0.1870    1.7680 O   0  0  0  0  0  0  0  0  0  0  0  0
    3.4540    0.8200    0.6160 C   0  0  0  0  0  0  0  0  0  0  0  0
    3.0390    1.8310    1.4050 N   0  0  0  0  0  0  0  0  0  0  0  0
    1.9010    2.3460    0.9100 C   0  0  0  0  0  0  0  0  0  0  0  0
    1.2180    3.3050    1.3800 O   0  0  0  0  0  0  0  0  0  0  0  0
    1.5710    1.6500   -0.2290 N   0  0  0  0  0  0  0  0  0  0  0  0
    0.4760    1.8760   -1.0950 C   0  0  0  0  0  0  0  0  0  0  0  0
   -0.7990    1.2380   -0.9520 C   0  0  0  0  0  0  0  0  0  0  0  0
   -1.6900    1.6600   -1.8430 O   0  0  0  0  0  0  0  0  0  0  0  0
   -1.2790    0.2430   -0.0390 C   0  0  0  0  0  0  0  0  0  0  0  0
   -0.5760   -0.2260    1.0350 C   0  0  0  0  0  0  0  0  0  0  0  0
   -1.0700   -1.1790    1.9290 C   0  0  0  0  0  0  0  0  0  0  0  0
   -2.3330   -1.6570    1.6990 C   0  0  0  0  0  0  0  0  0  0  0  0
   -3.0980   -1.2270    0.6340 C   0  0  0  0  0  0  0  0  0  0  0  0
   -2.5840   -0.2920   -0.2250 C   0  0  0  0  0  0  0  0  0  0  0  0
   -3.5960   -0.0280   -1.2660 C   0  0  2  0  0  0  0  0  0  0  0  0
   -4.4100    1.2070   -0.8990 C   0  0  0  0  0  0  0  0  0  0  0  0
   -4.5130   -1.2240   -1.2240 C   0  0  0  0  0  0  0  0  0  0  0  0
   -4.4970   -1.6140    0.2120 C   0  0  0  0  0  0  0  0  0  0  0  0
    2.5460    0.7020   -0.4010 C   0  0  0  0  0  0  0  0  0  0  0  0
    2.5590   -0.2560   -1.5180 C   0  0  0  0  0  0  0  0  0  0  0  0
  1  2  1  0
  2  3  1  0
  3  4  2  0
  3  5  1  0
  5  6  1  0
  5 23  2  0
  6  7  1  0
  7  8  2  0
  7  9  1  0
  9 10  1  0
  9 23  1  0
 10 11  1  0
 11 12  2  0
 11 13  1  0
 13 14  2  0
 13 18  1  0
 14 15  1  0
 15 16  2  0
 16 17  1  0
 17 18  2  0
 17 22  1  0
 18 19  1  0
 19 20  1  1
 19 21  1  0
 21 22  1  0
 23 24  1  0
M  END
