
     RDKit          3D

 24 26  0  0  0  0  0  0  0  0999 V2000
    7.6330   -0.7730   -0.0500 C   0  0  0  0  0  0  0  0  0  0  0  0
    6.9440    0.2290   -0.9510 C   0  0  0  0  0  0  0  0  0  0  0  0
    5.5860    0.3090   -0.5210 O   0  0  0  0  0  0  0  0  0  0  0  0
    5.2240    0.6960    0.7450 C   0  0  0  0  0  0  0  0  0  0  0  0
    6.1070    0.9950    1.5720 O   0  0  0  0  0  0  0  0  0  0  0  0
    3.8220    0.7690    1.1570 C   0  0  0  0  0  0  0  0  0  0  0  0
    3.3570    1.1480    2.4140 C   0  0  0  0  0  0  0  0  0  0  0  0
    1.9840    1.0780    2.3720 C   0  0  0  0  0  0  0  0  0  0  0  0
    1.6410    0.6620    1.1060 C   0  0  0  0  0  0  0  0  0  0  0  0
    0.2690    0.4400    0.5850 C   0  0  0  0  0  0  0  0  0  0  0  0
    0.0890    0.0410   -0.6460 C   0  0  0  0  0  0  0  0  0  0  0  0
   -1.2210   -0.1990   -1.2320 C   0  0  0  0  0  0  0  0  0  0  0  0
   -1.2610   -0.5830   -2.4360 O   0  0  0  0  0  0  0  0  0  0  0  0
   -2.4260   -0.0340   -0.5550 N   0  0  0  0  0  0  0  0  0  0  0  0
   -3.7400   -0.2320   -1.0070 C   0  0  0  0  0  0  0  0  0  0  0  0
   -4.0270   -0.6470   -2.2750 C   0  0  0  0  0  0  0  0  0  0  0  0
   -5.3610   -0.8400   -2.7100 C   0  0  0  0  0  0  0  0  0  0  0  0
   -6.4080   -0.6100   -1.8470 C   0  0  0  0  0  0  0  0  0  0  0  0
   -6.1310   -0.1890   -0.5590 C   0  0  0  0  0  0  0  0  0  0  0  0
   -4.8290   -0.0100   -0.1640 C   0  0  0  0  0  0  0  0  0  0  0  0
   -4.8060    0.3940    1.1060 C   0  0  0  0  0  0  0  0  0  0  0  0
   -6.2080    0.4780    1.5510 C   0  0  0  0  0  0  0  0  0  0  0  0
   -6.9590    0.0750    0.3830 N   0  0  0  0  0  0  0  0  0  0  0  0
    2.7550    0.5010    0.4530 O   0  0  0  0  0  0  0  0  0  0  0  0
  1  2  1  0
  2  3  1  0
  3  4  1  0
  4  5  2  0
  4  6  1  0
  6  7  2  0
  6 24  1  0
  7  8  1  0
  8  9  2  0
  9 10  1  0
  9 24  1  0
 10 11  2  3
 11 12  1  0
 12 13  2  0
 12 14  1  0
 14 15  1  0
 15 16  2  0
 15 20  1  0
 16 17  1  0
 17 18  2  0
 18 19  1  0
 19 20  1  0
 19 23  2  0
 20 21  2  0
 21 22  1  0
 22 23  1  0
M  END
