
     RDKit          3D

 24 26  0  0  0  0  0  0  0  0999 V2000
   -2.5470    3.9300    1.3260 C   0  0  0  0  0  0  0  0  0  0  0  0
   -1.4290    3.1050    0.8080 C   0  0  0  0  0  0  0  0  0  0  0  0
   -1.7040    1.7930    0.4340 C   0  0  0  0  0  0  0  0  0  0  0  0
   -0.6910    0.9710   -0.0600 C   0  0  0  0  0  0  0  0  0  0  0  0
   -0.9470   -0.3340   -0.4360 O   0  0  0  0  0  0  0  0  0  0  0  0
   -2.1520   -0.9770   -0.3850 C   0  0  0  0  0  0  0  0  0  0  0  0
   -2.2780   -2.1260    0.2610 C   0  0  0  0  0  0  0  0  0  0  0  0
   -3.5300   -2.8930    0.3720 C   0  0  0  0  0  0  0  0  0  0  0  0
   -4.5790   -2.2430   -0.2970 O   0  0  0  0  0  0  0  0  0  0  0  0
   -4.4780   -1.0520   -0.9750 C   0  0  0  0  0  0  0  0  0  0  0  0
   -3.3220   -0.4100   -1.0400 C   0  0  0  0  0  0  0  0  0  0  0  0
    0.5970    1.4600   -0.1810 C   0  0  0  0  0  0  0  0  0  0  0  0
    1.6940    0.6360   -0.6890 C   0  0  0  0  0  0  0  0  0  0  0  0
    2.1910   -0.3460    0.3190 C   0  0  0  0  0  0  0  0  0  0  0  0
    1.7010   -0.4330    1.4760 O   0  0  0  0  0  0  0  0  0  0  0  0
    3.2710   -1.2120   -0.0830 C   0  0  0  0  0  0  0  0  0  0  0  0
    3.8440   -1.1600   -1.3290 C   0  0  0  0  0  0  0  0  0  0  0  0
    4.8870   -2.0180   -1.6780 C   0  0  0  0  0  0  0  0  0  0  0  0
    5.3530   -2.9130   -0.8040 N   0  0  0  0  0  0  0  0  0  0  0  0
    4.8170   -2.9870    0.4140 C   0  0  0  0  0  0  0  0  0  0  0  0
    3.7870   -2.1520    0.7840 C   0  0  0  0  0  0  0  0  0  0  0  0
    0.8210    2.7630    0.2000 C   0  0  0  0  0  0  0  0  0  0  0  0
    1.9550    3.2580    0.1150 O   0  0  0  0  0  0  0  0  0  0  0  0
   -0.1690    3.5560    0.6810 N   0  0  0  0  0  0  0  0  0  0  0  0
  1  2  1  0
  2  3  2  0
  2 24  1  0
  3  4  1  0
  4  5  1  0
  4 12  2  0
  5  6  1  0
  6  7  2  0
  6 11  1  0
  7  8  1  0
  8  9  1  0
  9 10  1  0
 10 11  2  0
 12 13  1  0
 12 22  1  0
 13 14  1  0
 14 15  2  0
 14 16  1  0
 16 17  2  0
 16 21  1  0
 17 18  1  0
 18 19  2  0
 19 20  1  0
 20 21  2  0
 22 23  2  0
 22 24  1  0
M  END
