
     RDKit          3D

 23 24  0  0  0  0  0  0  0  0999 V2000
   -5.7910   -1.3580    1.4520 C   0  0  0  0  0  0  0  0  0  0  0  0
   -4.5160   -0.9010    1.1260 O   0  0  0  0  0  0  0  0  0  0  0  0
   -4.2310   -0.1620   -0.0230 C   0  0  0  0  0  0  0  0  0  0  0  0
   -5.2730    0.1290   -0.8780 C   0  0  0  0  0  0  0  0  0  0  0  0
   -5.0130    0.8540   -2.0110 C   0  0  0  0  0  0  0  0  0  0  0  0
   -3.7280    1.2620   -2.2510 C   0  0  0  0  0  0  0  0  0  0  0  0
   -2.6790    0.9610   -1.3770 C   0  0  0  0  0  0  0  0  0  0  0  0
   -2.9280    0.2380   -0.2430 C   0  0  0  0  0  0  0  0  0  0  0  0
   -1.9290   -0.1080    0.6890 N   0  0  0  0  0  0  0  0  0  0  0  0
   -0.5600    0.2120    0.6270 C   0  0  0  0  0  0  0  0  0  0  0  0
   -0.1020    0.8610   -0.3090 O   0  0  0  0  0  0  0  0  0  0  0  0
    0.3170   -0.2740    1.7530 C   0  0  0  0  0  0  0  0  0  0  0  0
    1.7460    0.1350    1.5370 C   0  0  0  0  0  0  0  0  0  0  0  0
    2.3180   -0.4080    0.2930 C   0  0  0  0  0  0  0  0  0  0  0  0
    1.6060   -1.1290   -0.4470 O   0  0  0  0  0  0  0  0  0  0  0  0
    3.7010   -0.0870   -0.0370 C   0  0  0  0  0  0  0  0  0  0  0  0
    4.3770    0.6760    0.7970 C   0  0  0  0  0  0  0  0  0  0  0  0
    5.7830    1.1570    0.7150 C   0  0  0  0  0  0  0  0  0  0  0  0
    6.6560    0.0550    0.6910 O   0  0  0  0  0  0  0  0  0  0  0  0
    6.9650   -0.3610   -0.9360 S   0  0  0  0  0  0  0  0  0  0  0  0
    5.4320   -0.8210   -1.7480 C   0  0  0  0  0  0  0  0  0  0  0  0
    4.2050   -0.6640   -1.2980 C   0  0  0  0  0  0  0  0  0  0  0  0
    3.2110   -1.1120   -2.1380 O   0  0  0  0  0  0  0  0  0  0  0  0
  1  2  1  0
  2  3  1  0
  3  4  2  0
  3  8  1  0
  4  5  1  0
  5  6  2  0
  6  7  1  0
  7  8  2  0
  8  9  1  0
  9 10  1  0
 10 11  2  0
 10 12  1  0
 12 13  1  0
 13 14  1  0
 14 15  2  0
 14 16  1  0
 16 17  2  0
 16 22  1  0
 17 18  1  0
 18 19  1  0
 19 20  1  0
 20 21  1  0
 21 22  2  0
 22 23  1  0
M  END
