
     RDKit          3D

 23 24  0  0  0  0  0  0  0  0999 V2000
    6.6300    0.6070   -0.5290 C   0  0  0  0  0  0  0  0  0  0  0  0
    5.4910    0.5970    0.2940 O   0  0  0  0  0  0  0  0  0  0  0  0
    4.2880    0.0260   -0.0290 C   0  0  0  0  0  0  0  0  0  0  0  0
    4.0090   -0.6260   -1.2090 C   0  0  0  0  0  0  0  0  0  0  0  0
    2.7870   -1.1780   -1.4790 C   0  0  0  0  0  0  0  0  0  0  0  0
    1.7500   -1.0930   -0.5340 C   0  0  0  0  0  0  0  0  0  0  0  0
    0.2140   -1.7430   -0.9720 S   0  0  2  0  0  0  0  0  0  0  0  0
   -0.2800   -2.7440    0.0750 O   0  0  0  0  0  0  0  0  0  0  0  0
    0.3840   -2.5930   -2.2300 O   0  0  0  0  0  0  0  0  0  0  0  0
   -1.0350   -0.6690   -1.2660 N   0  0  0  0  0  0  0  0  0  0  0  0
   -2.1520   -0.7670   -0.4250 C   0  0  0  0  0  0  0  0  0  0  0  0
   -3.2290    0.2810   -0.8200 C   0  0  0  0  0  0  0  0  0  0  0  0
   -4.3860    0.1280    0.1060 C   0  0  0  0  0  0  0  0  0  0  0  0
   -5.4750    1.1160   -0.2060 C   0  0  0  0  0  0  0  0  0  0  0  0
   -6.0650    0.9870   -1.5430 C   0  0  0  0  0  0  0  0  0  0  0  0
   -5.7120    0.0740   -2.3240 O   0  0  0  0  0  0  0  0  0  0  0  0
   -7.0380    1.8650   -2.0030 O   0  0  0  0  0  0  0  0  0  0  0  0
    2.0350   -0.4400    0.6480 C   0  0  0  0  0  0  0  0  0  0  0  0
    1.0330   -0.3560    1.6180 C   0  0  0  0  0  0  0  0  0  0  0  0
    1.2620    0.2650    2.8070 C   0  0  0  0  0  0  0  0  0  0  0  0
    2.4990    0.8180    3.0620 C   0  0  0  0  0  0  0  0  0  0  0  0
    3.5130    0.7540    2.1320 C   0  0  0  0  0  0  0  0  0  0  0  0
    3.2670    0.1130    0.9140 C   0  0  0  0  0  0  0  0  0  0  0  0
  1  2  1  0
  2  3  1  0
  3  4  2  0
  3 23  1  0
  4  5  1  0
  5  6  2  0
  6  7  1  0
  6 18  1  0
  7  8  2  0
  7  9  2  0
  7 10  1  6
 10 11  1  0
 11 12  1  0
 12 13  1  0
 13 14  1  0
 14 15  1  0
 15 16  2  0
 15 17  1  0
 18 19  2  0
 18 23  1  0
 19 20  1  0
 20 21  2  0
 21 22  1  0
 22 23  2  0
M  END
