
     RDKit          3D

 23 24  0  0  0  0  0  0  0  0999 V2000
    5.1620    3.3030   -0.8260 C   0  0  0  0  0  0  0  0  0  0  0  0
    3.8900    2.5060   -0.6270 C   0  0  0  0  0  0  0  0  0  0  0  0
    4.2820    1.1450   -0.4360 O   0  0  0  0  0  0  0  0  0  0  0  0
    3.3330    0.1460   -0.2230 C   0  0  0  0  0  0  0  0  0  0  0  0
    1.9870    0.4050   -0.1850 C   0  0  0  0  0  0  0  0  0  0  0  0
    1.0480   -0.6240    0.0320 C   0  0  0  0  0  0  0  0  0  0  0  0
   -0.3430   -0.2690    0.0400 N   0  0  0  0  0  0  0  0  0  0  0  0
   -1.4110   -1.0470    0.4800 C   0  0  0  0  0  0  0  0  0  0  0  0
   -1.0510   -2.2260    0.8970 O   0  0  0  0  0  0  0  0  0  0  0  0
   -2.8030   -0.8070    0.5710 C   0  0  0  0  0  0  0  0  0  0  0  0
   -3.5260    0.2480    0.3570 C   0  0  0  0  0  0  0  0  0  0  0  0
   -2.8810    1.5170   -0.0490 C   0  0  0  0  0  0  0  0  0  0  0  0
   -3.7400    2.6910    0.5480 C   0  0  0  0  0  0  0  0  0  0  0  0
   -5.0210    2.6310    0.0590 O   0  0  0  0  0  0  0  0  0  0  0  0
   -4.9370    0.1940    0.5110 O   0  0  0  0  0  0  0  0  0  0  0  0
   -5.6890   -0.7560   -0.1720 C   0  0  0  0  0  0  0  0  0  0  0  0
   -5.2600   -2.1860   -0.0140 C   0  0  0  0  0  0  0  0  0  0  0  0
   -3.8340   -2.2520    1.1050 S   0  0  0  0  0  0  0  0  0  0  0  0
    1.5770   -1.8580    0.1940 C   0  0  0  0  0  0  0  0  0  0  0  0
    2.9370   -2.1640    0.1630 C   0  0  0  0  0  0  0  0  0  0  0  0
    3.3780   -3.4780    0.3430 O   0  0  0  0  0  0  0  0  0  0  0  0
    4.7610   -3.7190    0.3000 C   0  0  0  0  0  0  0  0  0  0  0  0
    3.8140   -1.1310   -0.0510 C   0  0  0  0  0  0  0  0  0  0  0  0
  1  2  1  0
  2  3  1  0
  3  4  1  0
  4  5  2  0
  4 23  1  0
  5  6  1  0
  6  7  1  0
  6 19  2  0
  7  8  1  0
  8  9  2  0
  8 10  1  0
 10 11  2  0
 10 18  1  0
 11 12  1  0
 11 15  1  0
 12 13  1  0
 13 14  1  0
 15 16  1  0
 16 17  1  0
 17 18  1  0
 19 20  1  0
 20 21  1  0
 20 23  2  0
 21 22  1  0
M  END
