
     RDKit          3D

 24 23  0  0  0  0  0  0  0  0999 V2000
   -4.6180   -1.6190    1.0140 C   0  0  0  0  0  0  0  0  0  0  0  0
   -4.1450   -0.3970    0.7830 C   0  0  0  0  0  0  0  0  0  0  0  0
   -4.9220    0.6500    1.1840 O   0  0  0  0  0  0  0  0  0  0  0  0
   -6.2910    0.6840    1.0890 N   0  0  0  0  0  0  0  0  0  0  0  0
   -2.8570   -0.2310    0.1270 C   0  0  0  0  0  0  0  0  0  0  0  0
   -2.2610    0.8850   -0.1390 C   0  0  0  0  0  0  0  0  0  0  0  0
   -2.6410    2.2250    0.1050 C   0  0  0  0  0  0  0  0  0  0  0  0
   -3.6860    2.5810    0.6550 O   0  0  0  0  0  0  0  0  0  0  0  0
   -1.7840    3.2820   -0.2970 O   0  0  0  0  0  0  0  0  0  0  0  0
   -2.1550   -1.4910   -0.3640 C   0  0  1  0  0  0  0  0  0  0  0  0
   -2.8400   -2.1040   -1.5360 C   0  0  0  0  0  0  0  0  0  0  0  0
   -2.1290   -3.2820   -1.8420 O   0  0  0  0  0  0  0  0  0  0  0  0
   -0.8110   -1.1760   -0.7110 N   0  0  0  0  0  0  0  0  0  0  0  0
    0.2650   -1.4720    0.1950 C   0  0  0  0  0  0  0  0  0  0  0  0
   -0.0330   -2.0110    1.2870 O   0  0  0  0  0  0  0  0  0  0  0  0
    1.6050   -1.1720   -0.1240 N   0  0  0  0  0  0  0  0  0  0  0  0
    2.7110   -1.4360    0.7550 C   0  0  0  0  0  0  0  0  0  0  0  0
    2.5300   -0.6480    2.0260 C   0  0  0  0  0  0  0  0  0  0  0  0
    2.4610    0.6730    1.7950 O   0  0  0  0  0  0  0  0  0  0  0  0
    3.4550    1.3710    1.2310 C   0  0  0  0  0  0  0  0  0  0  0  0
    3.8590    1.0250   -0.0490 O   0  0  0  0  0  0  0  0  0  0  0  0
    4.8940    1.8910   -0.3990 C   0  0  0  0  0  0  0  0  0  0  0  0
    5.4140    1.6160   -1.7910 C   0  0  0  0  0  0  0  0  0  0  0  0
    4.4220    1.7610   -2.7520 O   0  0  0  0  0  0  0  0  0  0  0  0
  1  2  2  0
  2  3  1  0
  2  5  1  0
  3  4  1  0
  5  6  2  3
  5 10  1  0
  6  7  1  0
  7  8  2  0
  7  9  1  0
 10 11  1  6
 10 13  1  0
 11 12  1  0
 13 14  1  0
 14 15  2  0
 14 16  1  0
 16 17  1  0
 17 18  1  0
 18 19  1  0
 19 20  1  0
 20 21  1  0
 21 22  1  0
 22 23  1  0
 23 24  1  0
M  END
