
     RDKit          3D

 23 24  0  0  0  0  0  0  0  0999 V2000
    7.5000   -0.7880   -0.1540 C   0  0  0  0  0  0  0  0  0  0  0  0
    7.0170   -1.0700    1.2470 C   0  0  0  0  0  0  0  0  0  0  0  0
    5.6290   -0.8380    1.2940 O   0  0  0  0  0  0  0  0  0  0  0  0
    5.0700    0.3980    1.0800 C   0  0  0  0  0  0  0  0  0  0  0  0
    5.8400    1.3640    0.8440 O   0  0  0  0  0  0  0  0  0  0  0  0
    3.5760    0.6600    1.1130 C   0  0  0  0  0  0  0  0  0  0  0  0
    2.9550    0.1840   -0.4890 S   0  0  0  0  0  0  0  0  0  0  0  0
    1.3040    0.5880   -0.8880 C   0  0  0  0  0  0  0  0  0  0  0  0
    0.2320   -0.0940   -0.1050 C   0  0  0  0  0  0  0  0  0  0  0  0
    0.4370   -0.8760    0.8280 O   0  0  0  0  0  0  0  0  0  0  0  0
   -1.0970    0.2020   -0.4920 N   0  0  0  0  0  0  0  0  0  0  0  0
   -2.2850   -0.3070    0.0810 C   0  0  0  0  0  0  0  0  0  0  0  0
   -2.2940   -1.1020    1.2030 C   0  0  0  0  0  0  0  0  0  0  0  0
   -3.5040   -1.5610    1.7370 C   0  0  0  0  0  0  0  0  0  0  0  0
   -4.7030   -1.2390    1.1710 C   0  0  0  0  0  0  0  0  0  0  0  0
   -5.9280   -1.6620    1.6600 O   0  0  0  0  0  0  0  0  0  0  0  0
   -4.7240   -0.4380    0.0360 C   0  0  0  0  0  0  0  0  0  0  0  0
   -5.9420   -0.1200   -0.5350 C   0  0  0  0  0  0  0  0  0  0  0  0
   -6.0130    0.6620   -1.6570 C   0  0  0  0  0  0  0  0  0  0  0  0
   -4.8480    1.1230   -2.2010 C   0  0  0  0  0  0  0  0  0  0  0  0
   -4.8810    1.9170   -3.3340 O   0  0  0  0  0  0  0  0  0  0  0  0
   -3.6110    0.7940   -1.6110 C   0  0  0  0  0  0  0  0  0  0  0  0
   -3.5300    0.0130   -0.4890 C   0  0  0  0  0  0  0  0  0  0  0  0
  1  2  1  0
  2  3  1  0
  3  4  1  0
  4  5  2  0
  4  6  1  0
  6  7  1  0
  7  8  1  0
  8  9  1  0
  9 10  2  0
  9 11  1  0
 11 12  1  0
 12 13  2  0
 12 23  1  0
 13 14  1  0
 14 15  2  0
 15 16  1  0
 15 17  1  0
 17 18  2  0
 17 23  1  0
 18 19  1  0
 19 20  2  0
 20 21  1  0
 20 22  1  0
 22 23  2  0
M  END
