
     RDKit          3D

 23 24  0  0  0  0  0  0  0  0999 V2000
    7.1280    2.5760    0.4780 C   0  0  0  0  0  0  0  0  0  0  0  0
    6.0250    1.8230   -0.1810 C   0  0  0  0  0  0  0  0  0  0  0  0
    6.2120    0.9770   -1.2440 C   0  0  0  0  0  0  0  0  0  0  0  0
    4.9760    0.4750   -1.5690 C   0  0  0  0  0  0  0  0  0  0  0  0
    4.0580    1.0430   -0.6760 C   0  0  0  0  0  0  0  0  0  0  0  0
    2.6000    0.7630   -0.6830 C   0  0  0  0  0  0  0  0  0  0  0  0
    2.3520   -0.4210    0.2240 C   0  0  0  0  0  0  0  0  0  0  0  0
    0.8680   -0.7150    0.2250 C   0  0  0  0  0  0  0  0  0  0  0  0
    0.0880   -0.0150   -0.4580 O   0  0  0  0  0  0  0  0  0  0  0  0
    0.3560   -1.7750    0.9910 N   0  0  0  0  0  0  0  0  0  0  0  0
   -1.0390   -2.1490    1.0650 C   0  0  0  0  0  0  0  0  0  0  0  0
   -1.4060   -3.1410    2.0280 C   0  0  0  0  0  0  0  0  0  0  0  0
   -3.1730   -3.2710    1.7390 S   0  0  0  0  0  0  0  0  0  0  0  0
   -3.3060   -2.1210    0.4870 C   0  0  0  0  0  0  0  0  0  0  0  0
   -4.5840   -1.8170   -0.1460 C   0  0  2  0  0  0  0  0  0  0  0  0
   -5.3130   -2.9850   -0.4650 O   0  0  0  0  0  0  0  0  0  0  0  0
   -4.5310   -0.9800   -1.3690 C   0  0  0  0  0  0  0  0  0  0  0  0
   -3.8260    0.1870   -1.1420 O   0  0  0  0  0  0  0  0  0  0  0  0
   -4.3840    0.9660   -0.1530 C   0  0  0  0  0  0  0  0  0  0  0  0
   -3.5060    2.2230   -0.0280 C   0  0  0  0  0  0  0  0  0  0  0  0
   -4.0160    3.0520    0.9560 O   0  0  0  0  0  0  0  0  0  0  0  0
   -2.0390   -1.6780    0.3240 C   0  0  0  0  0  0  0  0  0  0  0  0
    4.7600    1.8220    0.1050 O   0  0  0  0  0  0  0  0  0  0  0  0
  1  2  1  0
  2  3  2  0
  2 23  1  0
  3  4  1  0
  4  5  2  0
  5  6  1  0
  5 23  1  0
  6  7  1  0
  7  8  1  0
  8  9  2  0
  8 10  1  0
 10 11  1  0
 11 12  2  0
 11 22  1  0
 12 13  1  0
 13 14  1  0
 14 15  1  0
 14 22  2  0
 15 16  1  6
 15 17  1  0
 17 18  1  0
 18 19  1  0
 19 20  1  0
 20 21  1  0
M  END
