
     RDKit          3D

 27 28  0  0  0  0  0  0  0  0999 V2000
   -5.5760    1.3850   -0.0750 C   0  0  0  0  0  0  0  0  0  0  0  0
   -4.1740    1.6860   -0.5000 C   0  0  0  0  0  0  0  0  0  0  0  0
   -3.1640    0.8310   -0.4010 C   0  0  0  0  0  0  0  0  0  0  0  0
   -1.8400    1.3940   -0.9060 C   0  0  0  0  0  0  0  0  0  0  0  0
   -1.1900    1.9770    0.1450 O   0  0  0  0  0  0  0  0  0  0  0  0
   -0.0270    2.6130    0.4190 C   0  0  0  0  0  0  0  0  0  0  0  0
   -0.1400    3.7880    1.0580 C   0  0  0  0  0  0  0  0  0  0  0  0
    0.9150    4.5970    1.4310 O   0  0  0  0  0  0  0  0  0  0  0  0
    2.2190    4.2480    1.1620 C   0  0  0  0  0  0  0  0  0  0  0  0
    2.3600    2.9530    0.4590 C   0  0  0  0  0  0  0  0  0  0  0  0
    1.3420    2.1560    0.0930 C   0  0  0  0  0  0  0  0  0  0  0  0
    1.6880    1.0070   -0.5420 O   0  0  0  0  0  0  0  0  0  0  0  0
    1.4860   -0.3380   -0.4680 C   0  0  1  0  0  0  0  0  0  0  0  0
    2.8160   -1.0120   -0.8360 C   0  0  0  0  0  0  0  0  0  0  0  0
    3.9430   -0.6370    0.0490 C   0  0  0  0  0  0  0  0  0  0  0  0
    5.2160   -1.3010   -0.3480 C   0  0  0  0  0  0  0  0  0  0  0  0
    6.4320   -1.1200    0.3200 N   0  0  0  0  0  0  0  0  0  0  0  0
    5.1840   -2.0670   -1.3430 O   0  0  0  0  0  0  0  0  0  0  0  0
    1.0950   -0.7960    0.8870 C   0  0  0  0  0  0  0  0  0  0  0  0
    0.2670   -1.9700    0.8720 O   0  0  0  0  0  0  0  0  0  0  0  0
   -0.9140   -1.5510    0.3570 C   0  0  0  0  0  0  0  0  0  0  0  0
   -2.1430   -2.4000    0.5670 C   0  0  2  0  0  0  0  0  0  0  0  0
   -2.6210   -2.3890    1.8530 O   0  0  0  0  0  0  0  0  0  0  0  0
   -1.8480   -3.7890    0.0400 C   0  0  0  0  0  0  0  0  0  0  0  0
   -1.3750   -3.6260   -1.2700 O   0  0  0  0  0  0  0  0  0  0  0  0
   -3.1510   -1.6970   -0.3790 C   0  0  0  0  0  0  0  0  0  0  0  0
   -3.3330   -0.4060    0.1050 O   0  0  0  0  0  0  0  0  0  0  0  0
  1  2  1  0
  2  3  2  3
  3  4  1  0
  3 27  1  0
  4  5  1  0
  5  6  1  0
  6  7  2  0
  6 11  1  0
  7  8  1  0
  8  9  1  0
  9 10  1  0
 10 11  2  0
 11 12  1  0
 12 13  1  0
 13 14  1  1
 13 19  1  0
 14 15  1  0
 15 16  1  0
 16 17  1  0
 16 18  2  0
 19 20  1  0
 20 21  1  0
 21 22  1  0
 22 23  1  1
 22 24  1  0
 22 26  1  0
 24 25  1  0
 26 27  1  0
M  END
