
     RDKit          3D

 26 28  0  0  0  0  0  0  0  0999 V2000
   -3.6660    2.5810    2.2980 C   0  0  0  0  0  0  0  0  0  0  0  0
   -2.9150    2.1460    1.1640 O   0  0  0  0  0  0  0  0  0  0  0  0
   -2.1160    1.0180    1.1940 C   0  0  0  0  0  0  0  0  0  0  0  0
   -2.0560    0.3640    2.2510 O   0  0  0  0  0  0  0  0  0  0  0  0
   -1.3810    0.6350    0.0040 C   0  0  1  0  0  0  0  0  0  0  0  0
   -1.6040    1.6030   -1.0950 N   0  0  0  0  0  0  0  0  0  0  0  0
    0.0880    0.5830    0.1870 C   0  0  0  0  0  0  0  0  0  0  0  0
    0.9500    1.2730    1.0570 C   0  0  0  0  0  0  0  0  0  0  0  0
    0.3750    2.1760    1.9370 O   0  0  0  0  0  0  0  0  0  0  0  0
    2.3050    1.0340    1.0050 C   0  0  0  0  0  0  0  0  0  0  0  0
    3.2330    1.7740    1.9280 C   0  0  0  0  0  0  0  0  0  0  0  0
    4.5530    1.4390    1.7600 O   0  0  0  0  0  0  0  0  0  0  0  0
    2.8120    0.1240    0.1070 C   0  0  0  0  0  0  0  0  0  0  0  0
    4.1650   -0.1080    0.0650 O   0  0  0  0  0  0  0  0  0  0  0  0
    4.8170   -1.1080    0.8250 C   0  0  0  0  0  0  0  0  0  0  0  0
    1.9480   -0.5620   -0.7580 C   0  0  0  0  0  0  0  0  0  0  0  0
    2.4490   -1.4810   -1.6670 O   0  0  0  0  0  0  0  0  0  0  0  0
    2.8110   -0.9890   -2.9470 C   0  0  0  0  0  0  0  0  0  0  0  0
    0.5900   -0.3260   -0.7100 C   0  0  0  0  0  0  0  0  0  0  0  0
   -0.4850   -0.9430   -1.5140 C   0  0  2  0  0  0  0  0  0  0  0  0
   -0.6640   -0.4230   -2.7620 O   0  0  0  0  0  0  0  0  0  0  0  0
   -1.6970   -0.7050   -0.5830 C   0  0  2  0  0  0  0  0  0  0  0  0
   -2.9590   -0.7070   -1.3990 C   0  0  0  0  0  0  0  0  0  0  0  0
   -3.5270   -2.0880   -1.1790 C   0  0  0  0  0  0  0  0  0  0  0  0
   -3.2360   -2.3160    0.3110 C   0  0  0  0  0  0  0  0  0  0  0  0
   -1.7960   -1.8310    0.3840 C   0  0  0  0  0  0  0  0  0  0  0  0
  1  2  1  0
  2  3  1  0
  3  4  2  0
  3  5  1  0
  5  6  1  6
  5  7  1  0
  5 22  1  0
  7  8  2  0
  7 19  1  0
  8  9  1  0
  8 10  1  0
 10 11  1  0
 10 13  2  0
 11 12  1  0
 13 14  1  0
 13 16  1  0
 14 15  1  0
 16 17  1  0
 16 19  2  0
 17 18  1  0
 19 20  1  0
 20 21  1  6
 20 22  1  0
 22 23  1  6
 22 26  1  0
 23 24  1  0
 24 25  1  0
 25 26  1  0
M  END
