
     RDKit          3D

 27 29  0  0  0  0  0  0  0  0999 V2000
    3.1550    5.6470   -2.5660 O   0  0  0  0  0  0  0  0  0  0  0  0
    3.3300    4.7120   -1.5390 C   0  0  0  0  0  0  0  0  0  0  0  0
    2.0650    4.3630   -0.8810 C   0  0  0  0  0  0  0  0  0  0  0  0
    1.6260    3.1330   -0.8720 C   0  0  0  0  0  0  0  0  0  0  0  0
    2.3680    2.1510   -1.4920 O   0  0  0  0  0  0  0  0  0  0  0  0
    0.3820    2.7960   -0.2240 C   0  0  0  0  0  0  0  0  0  0  0  0
   -0.1510    1.5940   -0.1570 C   0  0  0  0  0  0  0  0  0  0  0  0
   -1.3760    1.3230    0.4940 O   0  0  0  0  0  0  0  0  0  0  0  0
   -1.9420    0.1960   -0.1460 C   0  0  2  0  0  0  0  0  0  0  0  0
   -2.3630   -0.8000    0.9090 C   0  0  2  0  0  0  0  0  0  0  0  0
   -1.2330   -1.1800    1.6200 O   0  0  0  0  0  0  0  0  0  0  0  0
   -2.9980   -2.0210    0.3320 C   0  0  2  0  0  0  0  0  0  0  0  0
   -4.1280   -1.8040   -0.4000 O   0  0  0  0  0  0  0  0  0  0  0  0
   -5.3120   -1.7380    0.2680 C   0  0  0  0  0  0  0  0  0  0  0  0
   -5.2600   -1.8310    1.7510 C   0  0  0  0  0  0  0  0  0  0  0  0
   -4.0090   -2.4120    2.3150 C   0  0  0  0  0  0  0  0  0  0  0  0
   -3.1660   -2.9640    1.3450 O   0  0  0  0  0  0  0  0  0  0  0  0
   -0.9830   -0.3180   -1.0870 N   0  0  0  0  0  0  0  0  0  0  0  0
    0.2670    0.2780   -0.6590 C   0  0  2  0  0  0  0  0  0  0  0  0
    0.9220   -0.4640    0.3160 O   0  0  0  0  0  0  0  0  0  0  0  0
    2.1360   -1.0700    0.2370 C   0  0  0  0  0  0  0  0  0  0  0  0
    2.5770   -1.7490    1.3700 C   0  0  0  0  0  0  0  0  0  0  0  0
    3.7920   -2.3820    1.3560 C   0  0  0  0  0  0  0  0  0  0  0  0
    4.6300   -2.3800    0.2340 C   0  0  0  0  0  0  0  0  0  0  0  0
    4.1960   -1.7150   -0.8770 C   0  0  0  0  0  0  0  0  0  0  0  0
    4.9870   -1.6830   -2.0130 O   0  0  0  0  0  0  0  0  0  0  0  0
    2.9740   -1.0790   -0.8600 C   0  0  0  0  0  0  0  0  0  0  0  0
  1  2  1  0
  2  3  1  0
  3  4  2  3
  4  5  1  0
  4  6  1  0
  6  7  2  3
  7  8  1  0
  7 19  1  0
  8  9  1  0
  9 10  1  0
  9 18  1  6
 10 11  1  6
 10 12  1  0
 12 13  1  1
 12 17  1  0
 13 14  1  0
 14 15  1  0
 15 16  1  0
 16 17  1  0
 18 19  1  0
 19 20  1  1
 20 21  1  0
 21 22  2  0
 21 27  1  0
 22 23  1  0
 23 24  2  0
 24 25  1  0
 25 26  1  0
 25 27  2  0
M  END
