
     RDKit          3D

 27 29  0  0  0  0  0  0  0  0999 V2000
   -7.3700    2.0910    0.9600 C   0  0  0  0  0  0  0  0  0  0  0  0
   -6.8580    0.9030    1.2870 C   0  0  0  0  0  0  0  0  0  0  0  0
   -6.8130   -0.2040    0.2910 C   0  0  0  0  0  0  0  0  0  0  0  0
   -5.3960   -0.5600    0.1250 N   0  0  0  0  0  0  0  0  0  0  0  0
   -4.4590    0.3910   -0.3300 C   0  0  0  0  0  0  0  0  0  0  0  0
   -4.9280    1.5800   -0.5840 O   0  0  0  0  0  0  0  0  0  0  0  0
   -3.0520    0.2260   -0.5530 C   0  0  0  0  0  0  0  0  0  0  0  0
   -2.2810   -0.8290   -0.4030 C   0  0  0  0  0  0  0  0  0  0  0  0
   -2.7220   -2.1660    0.0550 C   0  0  0  0  0  0  0  0  0  0  0  0
   -1.5400   -3.1430    0.0860 C   0  0  0  0  0  0  0  0  0  0  0  0
   -0.8490   -3.0110   -1.2720 C   0  0  0  0  0  0  0  0  0  0  0  0
   -0.0740   -1.7210   -1.1680 C   0  0  0  0  0  0  0  0  0  0  0  0
    1.1350   -1.3100   -1.3820 O   0  0  0  0  0  0  0  0  0  0  0  0
    1.2760   -0.0350   -1.1140 C   0  0  0  0  0  0  0  0  0  0  0  0
    2.7580    0.9250   -1.2660 S   0  0  1  0  0  0  0  0  0  0  0  0
    3.5460    0.3750   -2.3960 O   0  0  0  0  0  0  0  0  0  0  0  0
    2.4100    2.3770   -1.5100 O   0  0  0  0  0  0  0  0  0  0  0  0
    3.5670    0.8330    0.2120 O   0  0  0  0  0  0  0  0  0  0  0  0
    4.9430    1.0160    0.3380 C   0  0  0  0  0  0  0  0  0  0  0  0
    5.7810    0.1390   -0.1670 C   0  0  0  0  0  0  0  0  0  0  0  0
    7.2280    0.2330   -0.0920 C   0  0  0  0  0  0  0  0  0  0  0  0
    7.7790    1.4080    0.6040 C   0  0  0  0  0  0  0  0  0  0  0  0
    6.8070    2.3440    1.1420 C   0  0  0  0  0  0  0  0  0  0  0  0
    5.5160    2.1670    1.0220 C   0  0  0  0  0  0  0  0  0  0  0  0
    0.0420    0.4110   -0.6890 C   0  0  0  0  0  0  0  0  0  0  0  0
   -0.3830    2.1840   -0.1370 Br  0  0  0  0  0  0  0  0  0  0  0  0
   -0.8380   -0.6420   -0.7150 C   0  0  0  0  0  0  0  0  0  0  0  0
  1  2  2  0
  2  3  1  0
  3  4  1  0
  4  5  1  0
  5  6  2  0
  5  7  1  0
  7  8  2  3
  8  9  1  0
  8 27  1  0
  9 10  1  0
 10 11  1  0
 11 12  1  0
 12 13  1  0
 12 27  2  0
 13 14  1  0
 14 15  1  0
 14 25  2  0
 15 16  2  0
 15 17  2  0
 15 18  1  1
 18 19  1  0
 19 20  2  0
 19 24  1  0
 20 21  1  0
 21 22  1  0
 22 23  1  0
 23 24  2  0
 25 26  1  0
 25 27  1  0
M  END
