
     RDKit          3D

 27 30  0  0  0  0  0  0  0  0999 V2000
   -5.9820    0.1110    3.1010 O   0  0  0  0  0  0  0  0  0  0  0  0
   -5.2540   -0.1620    1.9240 C   0  0  0  0  0  0  0  0  0  0  0  0
   -3.9070   -0.4340    1.9730 C   0  0  0  0  0  0  0  0  0  0  0  0
   -3.1930   -0.7010    0.8310 C   0  0  0  0  0  0  0  0  0  0  0  0
   -1.7190   -1.0000    0.8790 C   0  0  1  0  0  0  0  0  0  0  0  0
   -1.5050   -2.1500    0.1530 O   0  0  0  0  0  0  0  0  0  0  0  0
   -0.9710    0.1540    0.2640 C   0  0  0  0  0  0  0  0  0  0  0  0
   -1.5090    1.4110    0.0640 C   0  0  0  0  0  0  0  0  0  0  0  0
   -0.4990    2.1520   -0.5160 C   0  0  0  0  0  0  0  0  0  0  0  0
    0.5970    1.3220   -0.6420 C   0  0  0  0  0  0  0  0  0  0  0  0
    1.9180    1.7330   -1.2290 C   0  0  1  0  0  0  0  0  0  0  0  0
    2.2780    2.9840   -0.7030 O   0  0  0  0  0  0  0  0  0  0  0  0
    2.9680    0.7400   -0.9290 C   0  0  0  0  0  0  0  0  0  0  0  0
    3.4170   -0.1380   -1.8920 C   0  0  0  0  0  0  0  0  0  0  0  0
    4.4110   -1.0790   -1.6110 C   0  0  0  0  0  0  0  0  0  0  0  0
    4.9730   -1.1550   -0.3580 C   0  0  0  0  0  0  0  0  0  0  0  0
    4.5330   -0.2850    0.6060 C   0  0  0  0  0  0  0  0  0  0  0  0
    3.5500    0.6410    0.3180 C   0  0  0  0  0  0  0  0  0  0  0  0
    5.2380   -0.5490    1.7730 O   0  0  0  0  0  0  0  0  0  0  0  0
    6.3400   -1.3980    1.4720 C   0  0  0  0  0  0  0  0  0  0  0  0
    5.9550   -1.9560    0.2280 O   0  0  0  0  0  0  0  0  0  0  0  0
    0.2660    0.1560   -0.1680 O   0  0  0  0  0  0  0  0  0  0  0  0
   -3.8620   -0.6900   -0.3740 C   0  0  0  0  0  0  0  0  0  0  0  0
   -3.1610   -0.9560   -1.5430 O   0  0  0  0  0  0  0  0  0  0  0  0
   -5.2180   -0.4150   -0.4150 C   0  0  0  0  0  0  0  0  0  0  0  0
   -5.8730   -0.4100   -1.6600 O   0  0  0  0  0  0  0  0  0  0  0  0
   -5.8650   -0.1620    0.7280 N   0  0  0  0  0  0  0  0  0  0  0  0
  1  2  1  0
  2  3  2  0
  2 27  1  0
  3  4  1  0
  4  5  1  0
  4 23  2  0
  5  6  1  6
  5  7  1  0
  7  8  2  0
  7 22  1  0
  8  9  1  0
  9 10  2  0
 10 11  1  0
 10 22  1  0
 11 12  1  1
 11 13  1  0
 13 14  2  0
 13 18  1  0
 14 15  1  0
 15 16  2  0
 16 17  1  0
 16 21  1  0
 17 18  2  0
 17 19  1  0
 19 20  1  0
 20 21  1  0
 23 24  1  0
 23 25  1  0
 25 26  1  0
 25 27  2  0
M  END
