
     RDKit          3D

 27 29  0  0  0  0  0  0  0  0999 V2000
   -5.4280    3.5060    0.6360 N   0  0  0  0  0  0  0  0  0  0  0  0
   -4.2240    2.7590    0.5180 C   0  0  0  0  0  0  0  0  0  0  0  0
   -3.0220    3.2190    0.9850 C   0  0  0  0  0  0  0  0  0  0  0  0
   -1.8680    2.4720    0.8530 C   0  0  0  0  0  0  0  0  0  0  0  0
   -1.8350    1.2330    0.2530 C   0  0  0  0  0  0  0  0  0  0  0  0
   -3.0670    0.7650   -0.2210 C   0  0  0  0  0  0  0  0  0  0  0  0
   -4.2030    1.5190   -0.0830 C   0  0  0  0  0  0  0  0  0  0  0  0
   -3.0960   -0.5130   -0.8410 O   0  0  0  0  0  0  0  0  0  0  0  0
   -2.7020   -1.7050   -0.1430 C   0  0  0  0  0  0  0  0  0  0  0  0
   -1.8160   -2.6040   -0.9290 C   0  0  2  0  0  0  0  0  0  0  0  0
   -2.5000   -3.7980   -1.1760 O   0  0  0  0  0  0  0  0  0  0  0  0
   -0.5690   -2.9390   -0.1290 C   0  0  0  0  0  0  0  0  0  0  0  0
   -0.5340   -2.1320    0.9930 O   0  0  0  0  0  0  0  0  0  0  0  0
    0.5480   -1.5770    1.6400 C   0  0  0  0  0  0  0  0  0  0  0  0
    0.5500   -1.5540    2.9000 O   0  0  0  0  0  0  0  0  0  0  0  0
    1.7150   -1.0030    0.9450 C   0  0  0  0  0  0  0  0  0  0  0  0
    1.5780   -0.2470   -0.1450 C   0  0  0  0  0  0  0  0  0  0  0  0
    0.2330    0.0660   -0.7220 C   0  0  0  0  0  0  0  0  0  0  0  0
    0.2520   -0.1610   -1.9960 O   0  0  0  0  0  0  0  0  0  0  0  0
   -0.7020    0.5000    0.1130 O   0  0  0  0  0  0  0  0  0  0  0  0
    2.9420    0.1410   -0.6080 C   0  0  0  0  0  0  0  0  0  0  0  0
    3.2360    0.8300   -1.6890 C   0  0  0  0  0  0  0  0  0  0  0  0
    4.6050    1.1660   -2.0640 C   0  0  0  0  0  0  0  0  0  0  0  0
    5.5980    0.7200   -1.2160 O   0  0  0  0  0  0  0  0  0  0  0  0
    3.9380   -0.3790    0.3340 C   0  0  0  0  0  0  0  0  0  0  0  0
    3.1220   -1.1470    1.3330 C   0  0  1  0  0  0  0  0  0  0  0  0
    3.3370   -0.6610    2.6450 O   0  0  0  0  0  0  0  0  0  0  0  0
  1  2  1  0
  2  3  2  0
  2  7  1  0
  3  4  1  0
  4  5  2  0
  5  6  1  0
  5 20  1  0
  6  7  2  0
  6  8  1  0
  8  9  1  0
  9 10  1  0
 10 11  1  1
 10 12  1  0
 12 13  1  0
 13 14  1  0
 14 15  2  0
 14 16  1  0
 16 17  2  0
 16 26  1  0
 17 18  1  0
 17 21  1  0
 18 19  2  0
 18 20  1  0
 21 22  2  3
 21 25  1  0
 22 23  1  0
 23 24  1  0
 25 26  1  0
 26 27  1  1
M  END
