
     RDKit          3D

 23 24  0  0  0  0  0  0  0  0999 V2000
   -1.0320    2.0730    2.5370 C   0  0  0  0  0  0  0  0  0  0  0  0
   -1.5300    1.3680    1.4690 O   0  0  0  0  0  0  0  0  0  0  0  0
   -0.6100    0.7180    0.7260 N   0  0  0  0  0  0  0  0  0  0  0  0
    0.6420    0.3070    1.2420 C   0  0  0  0  0  0  0  0  0  0  0  0
    0.6930   -0.2590    2.3600 O   0  0  0  0  0  0  0  0  0  0  0  0
    1.8500    0.5710    0.4200 C   0  0  1  0  0  0  0  0  0  0  0  0
    2.8280   -0.4530    0.4270 N   0  0  0  0  0  0  0  0  0  0  0  0
    4.2010   -0.2910    0.9470 C   0  0  0  0  0  0  0  0  0  0  0  0
    4.9190   -1.0200   -0.2010 C   0  0  0  0  0  0  0  0  0  0  0  0
    4.1470   -2.2040   -0.2670 O   0  0  0  0  0  0  0  0  0  0  0  0
    2.8280   -1.8020    0.0010 C   0  0  0  0  0  0  0  0  0  0  0  0
    1.7630   -2.4900   -0.1010 O   0  0  0  0  0  0  0  0  0  0  0  0
    1.2960    0.8950   -0.9710 C   0  0  0  0  0  0  0  0  0  0  0  0
    0.3090   -0.0800   -1.2050 O   0  0  0  0  0  0  0  0  0  0  0  0
   -0.8980    0.4110   -0.6750 C   0  0  1  0  0  0  0  0  0  0  0  0
   -1.9010   -0.7140   -0.7390 C   0  0  0  0  0  0  0  0  0  0  0  0
   -3.2100   -0.4170   -0.0850 C   0  0  0  0  0  0  0  0  0  0  0  0
   -4.3300   -1.9130   -0.2680 P   0  0  0  0  0  0  0  0  0  0  0  0
   -3.4190   -3.3440   -0.5910 O   0  0  0  0  0  0  0  0  0  0  0  0
   -5.3450   -2.0860    1.1270 O   0  0  0  0  0  0  0  0  0  0  0  0
   -1.3600    1.8800   -1.6690 P   0  0  0  0  0  0  0  0  0  0  0  0
   -2.9260    1.7510   -2.4100 O   0  0  0  0  0  0  0  0  0  0  0  0
   -0.2190    2.2030   -2.9570 O   0  0  0  0  0  0  0  0  0  0  0  0
  1  2  1  0
  2  3  1  0
  3  4  1  0
  3 15  1  0
  4  5  2  0
  4  6  1  0
  6  7  1  6
  6 13  1  0
  7  8  1  0
  7 11  1  0
  8  9  1  0
  9 10  1  0
 10 11  1  0
 11 12  2  0
 13 14  1  0
 14 15  1  0
 15 16  1  1
 15 21  1  0
 16 17  1  0
 17 18  1  0
 18 19  1  0
 18 20  1  0
 21 22  1  0
 21 23  1  0
M  END
