
     RDKit          3D

 23 23  0  0  0  0  0  0  0  0999 V2000
   -1.5050    3.5370    0.0330 C   0  0  0  0  0  0  0  0  0  0  0  0
   -1.1610    2.1470   -0.3120 N   0  0  0  0  0  0  0  0  0  0  0  0
   -2.1340    1.3120   -0.9790 C   0  0  0  0  0  0  0  0  0  0  0  0
   -2.9710    0.1440    0.1680 P   0  0  0  0  0  0  0  0  0  0  0  0
   -4.4740    0.8620    0.7400 O   0  0  0  0  0  0  0  0  0  0  0  0
   -5.3090   -0.0680    1.0860 O   0  0  0  0  0  0  0  0  0  0  0  0
   -6.5540    0.2160    0.8050 O   0  0  0  0  0  0  0  0  0  0  0  0
   -3.4250   -1.3280   -0.6320 O   0  0  0  0  0  0  0  0  0  0  0  0
   -2.4510   -2.2880   -0.6640 C   0  0  0  0  0  0  0  0  0  0  0  0
   -1.6840   -2.4760    0.6150 C   0  0  0  0  0  0  0  0  0  0  0  0
   -0.2330   -2.8110    0.3550 C   0  0  0  0  0  0  0  0  0  0  0  0
    0.2380   -2.3240   -0.8660 O   0  0  0  0  0  0  0  0  0  0  0  0
    1.4000   -1.6190   -1.1010 C   0  0  0  0  0  0  0  0  0  0  0  0
    2.3450   -2.0290   -1.8280 O   0  0  0  0  0  0  0  0  0  0  0  0
    1.6340   -0.2550   -0.4810 C   0  0  2  0  0  0  0  0  0  0  0  0
    2.7730   -0.4070    0.3440 N   0  0  0  0  0  0  0  0  0  0  0  0
    3.7920    0.5820    0.1650 C   0  0  0  0  0  0  0  0  0  0  0  0
    5.3650    0.1000    1.0880 P   0  0  0  0  0  0  0  0  0  0  0  0
    6.3040   -0.9440    0.0310 O   0  0  0  0  0  0  0  0  0  0  0  0
    6.3560    1.5470    1.2640 O   0  0  0  0  0  0  0  0  0  0  0  0
    0.3610    0.2180    0.0980 C   0  0  0  0  0  0  0  0  0  0  0  0
    0.1310    1.6600    0.0260 C   0  0  0  0  0  0  0  0  0  0  0  0
    1.0270    2.4870    0.2500 O   0  0  0  0  0  0  0  0  0  0  0  0
  1  2  1  0
  2  3  1  0
  2 22  1  0
  3  4  1  0
  4  5  1  0
  4  8  1  0
  5  6  1  0
  6  7  1  0
  8  9  1  0
  9 10  1  0
 10 11  1  0
 11 12  1  0
 12 13  1  0
 13 14  2  0
 13 15  1  0
 15 16  1  1
 15 21  1  0
 16 17  1  0
 17 18  1  0
 18 19  1  0
 18 20  1  0
 21 22  1  0
 22 23  2  0
M  END
