
     RDKit          3D

 23 24  0  0  0  0  0  0  0  0999 V2000
   -3.7150   -3.3080   -2.3140 O   0  0  0  0  0  0  0  0  0  0  0  0
   -2.7360   -3.4520   -1.5710 C   0  0  0  0  0  0  0  0  0  0  0  0
   -2.2370   -2.3730   -0.7790 N   0  0  0  0  0  0  0  0  0  0  0  0
   -2.7980   -1.0330   -0.7540 C   0  0  0  0  0  0  0  0  0  0  0  0
   -1.8160   -0.1370   -0.1060 C   0  0  2  0  0  0  0  0  0  0  0  0
   -2.3200    0.4200    1.0590 O   0  0  0  0  0  0  0  0  0  0  0  0
   -3.7260    1.3440    0.7480 P   0  0  0  0  0  0  0  0  0  0  0  0
   -3.7980    1.9560   -0.8680 O   0  0  0  0  0  0  0  0  0  0  0  0
   -3.8370    2.7270    1.8200 O   0  0  0  0  0  0  0  0  0  0  0  0
   -1.3610    0.9260   -0.8860 O   0  0  0  0  0  0  0  0  0  0  0  0
   -0.5820    1.7170   -0.0360 C   0  0  0  0  0  0  0  0  0  0  0  0
    0.8650    1.2540    0.0340 C   0  0  0  0  0  0  0  0  0  0  0  0
    1.1160    0.3370    1.0750 N   0  0  0  0  0  0  0  0  0  0  0  0
    2.2660   -0.4740    0.8370 C   0  0  0  0  0  0  0  0  0  0  0  0
    3.5930    0.1940    0.8900 C   0  0  1  0  0  0  0  0  0  0  0  0
    4.5800   -0.8020    0.6690 O   0  0  0  0  0  0  0  0  0  0  0  0
    3.7560    1.3670   -0.5580 P   0  0  0  0  0  0  0  0  0  0  0  0
    4.1500    0.4620   -1.9840 O   0  0  0  0  0  0  0  0  0  0  0  0
    5.0680    2.4920   -0.2760 O   0  0  0  0  0  0  0  0  0  0  0  0
    0.0250   -0.5530    1.4060 C   0  0  0  0  0  0  0  0  0  0  0  0
   -0.6120   -1.0050    0.1420 C   0  0  1  0  0  0  0  0  0  0  0  0
   -1.1460   -2.3560    0.1170 C   0  0  0  0  0  0  0  0  0  0  0  0
   -0.7290   -3.3400    0.7630 O   0  0  0  0  0  0  0  0  0  0  0  0
  1  2  2  0
  2  3  1  0
  3  4  1  0
  3 22  1  0
  4  5  1  0
  5  6  1  1
  5 10  1  0
  5 21  1  0
  6  7  1  0
  7  8  1  0
  7  9  1  0
 10 11  1  0
 11 12  1  0
 12 13  1  0
 13 14  1  0
 13 20  1  0
 14 15  1  0
 15 16  1  6
 15 17  1  0
 17 18  1  0
 17 19  1  0
 21 20  1  1
 21 22  1  0
 22 23  2  0
M  END
