
     RDKit          3D

 24 24  0  0  0  0  0  0  0  0999 V2000
    1.6050    3.6200    1.1710 O   0  0  0  0  0  0  0  0  0  0  0  0
    2.2240    2.3990    1.9040 P   0  0  0  0  0  0  0  0  0  0  0  0
    2.4030    0.3940    1.0350 P   0  0  0  0  0  0  0  0  0  0  0  0
    1.0460   -0.0470    0.1250 O   0  0  0  0  0  0  0  0  0  0  0  0
    0.3930    0.9680   -0.5160 C   0  0  0  0  0  0  0  0  0  0  0  0
   -0.8400    0.3810   -1.2110 C   0  0  0  0  0  0  0  0  0  0  0  0
   -1.6570   -0.2190   -0.1580 N   0  0  0  0  0  0  0  0  0  0  0  0
   -2.9400   -0.7400   -0.4230 C   0  0  0  0  0  0  0  0  0  0  0  0
   -3.3520   -0.6640   -1.5860 O   0  0  0  0  0  0  0  0  0  0  0  0
   -3.7730   -1.3530    0.6510 C   0  0  2  0  0  0  0  0  0  0  0  0
   -5.1170   -1.7060   -0.0740 C   0  0  0  0  0  0  0  0  0  0  0  0
   -5.3530   -0.6190   -0.9010 O   0  0  0  0  0  0  0  0  0  0  0  0
   -5.4270    0.6090   -0.2980 C   0  0  0  0  0  0  0  0  0  0  0  0
   -5.2520    0.5020    1.2080 C   0  0  0  0  0  0  0  0  0  0  0  0
   -5.9700    1.1850    1.9740 O   0  0  0  0  0  0  0  0  0  0  0  0
   -4.2450   -0.3880    1.6360 N   0  0  0  0  0  0  0  0  0  0  0  0
    3.9240    0.1920    0.1630 O   0  0  0  0  0  0  0  0  0  0  0  0
    5.0530    0.7260    0.7160 C   0  0  0  0  0  0  0  0  0  0  0  0
    4.9190    1.3230    1.8560 O   0  0  0  0  0  0  0  0  0  0  0  0
    6.4140    0.7100    0.1500 C   0  0  0  0  0  0  0  0  0  0  0  0
    6.5630   -0.0080   -1.0030 O   0  0  0  0  0  0  0  0  0  0  0  0
    6.5150   -1.4240   -1.0440 C   0  0  0  0  0  0  0  0  0  0  0  0
    6.3420   -2.1200    0.0350 O   0  0  0  0  0  0  0  0  0  0  0  0
    6.6530   -2.1040   -2.2320 O   0  0  0  0  0  0  0  0  0  0  0  0
  1  2  2  0
  2  3  1  0
  3  4  1  0
  3 17  1  0
  4  5  1  0
  5  6  1  0
  6  7  1  0
  7  8  1  0
  8  9  2  0
 10  8  1  6
 10 11  1  0
 10 16  1  0
 11 12  1  0
 12 13  1  0
 13 14  1  0
 14 15  2  0
 14 16  1  0
 17 18  1  0
 18 19  2  0
 18 20  1  0
 20 21  1  0
 21 22  1  0
 22 23  2  0
 22 24  1  0
M  END
