
     RDKit          3D

 21 24  0  0  0  0  0  0  0  0999 V2000
    5.4240   -0.7880   -0.2440 O   0  0  0  0  0  0  0  0  0  0  0  0
    4.1750   -0.8130   -0.2590 C   0  0  0  0  0  0  0  0  0  0  0  0
    3.2720   -1.8370   -0.7460 N   0  0  0  0  0  0  0  0  0  0  0  0
    1.9330   -1.3800   -0.5330 C   0  0  0  0  0  0  0  0  0  0  0  0
    0.5720   -1.5330   -0.6090 N   0  0  0  0  0  0  0  0  0  0  0  0
   -0.0350   -0.4310   -0.0880 N   0  0  0  0  0  0  0  0  0  0  0  0
   -1.4370   -0.2630   -0.0120 C   0  0  0  0  0  0  0  0  0  0  0  0
   -2.2870   -1.3280    0.3110 C   0  0  0  0  0  0  0  0  0  0  0  0
   -3.6510   -1.1750    0.3870 C   0  0  0  0  0  0  0  0  0  0  0  0
   -4.7870   -2.6360    0.8280 Br  0  0  0  0  0  0  0  0  0  0  0  0
   -4.2330    0.0560    0.1420 C   0  0  0  0  0  0  0  0  0  0  0  0
   -5.9740    0.2750    0.2330 Cl  0  0  0  0  0  0  0  0  0  0  0  0
   -3.3810    1.0910   -0.1740 C   0  0  0  0  0  0  0  0  0  0  0  0
   -2.0110    0.9640   -0.2570 C   0  0  0  0  0  0  0  0  0  0  0  0
   -1.1980    2.0370   -0.5790 O   0  0  0  0  0  0  0  0  0  0  0  0
    0.8830    0.4540    0.3340 C   0  0  0  0  0  0  0  0  0  0  0  0
    1.0180    1.6660    0.9080 N   0  0  0  0  0  0  0  0  0  0  0  0
    2.2530    2.1620    1.1470 N   0  0  0  0  0  0  0  0  0  0  0  0
    3.4100    1.5150    0.8430 C   0  0  0  0  0  0  0  0  0  0  0  0
    3.3210    0.2710    0.2530 C   0  0  0  0  0  0  0  0  0  0  0  0
    2.0540   -0.1600    0.0450 C   0  0  0  0  0  0  0  0  0  0  0  0
  1  2  2  0
  2  3  1  0
  2 20  1  0
  3  4  1  0
  4  5  2  0
  4 21  1  0
  5  6  1  0
  6  7  1  0
  6 16  1  0
  7  8  2  0
  7 14  1  0
  8  9  1  0
  9 10  1  0
  9 11  2  0
 11 12  1  0
 11 13  1  0
 13 14  2  0
 14 15  1  0
 16 17  2  0
 16 21  1  0
 17 18  1  0
 18 19  2  0
 19 20  1  0
 20 21  2  0
M  END
