
     RDKit          3D

 22 24  0  0  0  0  0  0  0  0999 V2000
   -0.6220    0.7110   -2.9940 O   0  0  0  0  0  0  0  0  0  0  0  0
   -0.9270    0.6250   -1.7800 C   0  0  0  0  0  0  0  0  0  0  0  0
   -2.0670    0.0400   -1.3850 N   0  0  0  0  0  0  0  0  0  0  0  0
   -2.3820   -0.0470   -0.0810 C   0  0  0  0  0  0  0  0  0  0  0  0
   -3.6290   -0.6860    0.3570 C   0  0  0  0  0  0  0  0  0  0  0  0
   -4.0460   -0.8280    1.6510 C   0  0  0  0  0  0  0  0  0  0  0  0
   -5.2350   -1.4650    1.6140 N   0  0  0  0  0  0  0  0  0  0  0  0
   -5.5770   -1.7260    0.3750 N   0  0  0  0  0  0  0  0  0  0  0  0
   -4.6070   -1.2570   -0.4230 C   0  0  0  0  0  0  0  0  0  0  0  0
   -1.5100    0.4750    0.7960 N   0  0  0  0  0  0  0  0  0  0  0  0
   -0.3470    1.0710    0.3830 C   0  0  0  0  0  0  0  0  0  0  0  0
    0.4240    1.5420    1.2820 O   0  0  0  0  0  0  0  0  0  0  0  0
   -0.0190    1.1640   -0.9090 N   0  0  0  0  0  0  0  0  0  0  0  0
    1.1890    1.7660   -1.3580 C   0  0  0  0  0  0  0  0  0  0  0  0
    2.3730    0.9230   -1.5720 C   0  0  0  0  0  0  0  0  0  0  0  0
    2.9200    0.2000   -0.4150 C   0  0  0  0  0  0  0  0  0  0  0  0
    2.9970   -1.1150   -0.3400 C   0  0  0  0  0  0  0  0  0  0  0  0
    3.5930   -1.4990    0.9440 C   0  0  0  0  0  0  0  0  0  0  0  0
    3.8720   -0.2210    1.6230 C   0  0  0  0  0  0  0  0  0  0  0  0
    4.6670   -0.0590    3.3530 Br  0  0  0  0  0  0  0  0  0  0  0  0
    3.4660    0.7440    0.8050 C   0  0  0  0  0  0  0  0  0  0  0  0
    3.6310    2.4530    1.2560 Cl  0  0  0  0  0  0  0  0  0  0  0  0
  1  2  2  0
  2  3  1  0
  2 13  1  0
  3  4  2  0
  4  5  1  0
  4 10  1  0
  5  6  1  0
  5  9  2  0
  6  7  2  0
  7  8  1  0
  8  9  1  0
 10 11  1  0
 11 12  2  0
 11 13  1  0
 13 14  1  0
 14 15  1  0
 15 16  1  0
 16 17  2  0
 16 21  1  0
 17 18  1  0
 18 19  1  0
 19 20  1  0
 19 21  2  0
 21 22  1  0
M  END
