
     RDKit          3D

 22 25  0  0  0  0  0  0  0  0999 V2000
   -1.7050   -2.0530    1.2710 O   0  0  0  0  0  0  0  0  0  0  0  0
   -1.4020   -0.9250    0.7150 C   0  0  0  0  0  0  0  0  0  0  0  0
   -2.5450   -0.1740    0.2540 C   0  0  0  0  0  0  0  0  0  0  0  0
   -3.6210   -0.8530   -0.3610 C   0  0  0  0  0  0  0  0  0  0  0  0
   -3.4600   -2.5760   -0.5410 Cl  0  0  0  0  0  0  0  0  0  0  0  0
   -4.7310   -0.1540   -0.7850 C   0  0  0  0  0  0  0  0  0  0  0  0
   -4.8550    1.1760   -0.6440 N   0  0  0  0  0  0  0  0  0  0  0  0
   -3.8480    1.8420   -0.0630 C   0  0  0  0  0  0  0  0  0  0  0  0
   -3.9520    3.0820    0.0740 O   0  0  0  0  0  0  0  0  0  0  0  0
   -2.7070    1.1730    0.3810 C   0  0  0  0  0  0  0  0  0  0  0  0
   -1.3560    2.2190    1.2310 Br  0  0  0  0  0  0  0  0  0  0  0  0
   -0.0360   -0.5650    0.6190 N   0  0  0  0  0  0  0  0  0  0  0  0
    0.5810    0.4640    0.1120 N   0  0  0  0  0  0  0  0  0  0  0  0
    1.9140    0.4080    0.2390 C   0  0  0  0  0  0  0  0  0  0  0  0
    2.9640    1.3810   -0.1840 C   0  0  1  0  0  0  0  0  0  0  0  0
    4.2220    0.9400   -0.7690 C   0  0  0  0  0  0  0  0  0  0  0  0
    3.2180    1.6510   -1.6200 C   0  0  0  0  0  0  0  0  0  0  0  0
    2.1360   -0.7620    0.8830 N   0  0  0  0  0  0  0  0  0  0  0  0
    3.1240   -1.5000    1.3550 N   0  0  0  0  0  0  0  0  0  0  0  0
    2.6510   -2.6170    1.9230 C   0  0  0  0  0  0  0  0  0  0  0  0
    1.2760   -2.5390    1.7790 C   0  0  0  0  0  0  0  0  0  0  0  0
    0.9550   -1.3570    1.1170 C   0  0  0  0  0  0  0  0  0  0  0  0
  1  2  2  0
  2  3  1  0
  2 12  1  0
  3  4  1  0
  3 10  2  0
  4  5  1  0
  4  6  2  0
  6  7  1  0
  7  8  1  0
  8  9  2  0
  8 10  1  0
 10 11  1  0
 12 13  1  0
 12 22  1  0
 13 14  2  0
 15 14  1  6
 14 18  1  0
 15 16  1  0
 15 17  1  0
 16 17  1  0
 18 19  1  0
 18 22  1  0
 19 20  2  0
 20 21  1  0
 21 22  2  0
M  END
