
     RDKit          3D

 22 25  0  0  0  0  0  0  0  0999 V2000
   -3.4290    2.2620    1.4850 N   0  0  0  0  0  0  0  0  0  0  0  0
   -3.1580    1.3060    0.4670 C   0  0  0  0  0  0  0  0  0  0  0  0
   -3.8800    1.3640   -0.6750 N   0  0  0  0  0  0  0  0  0  0  0  0
   -3.6840    0.4960   -1.6910 C   0  0  0  0  0  0  0  0  0  0  0  0
   -4.5990    0.5540   -3.1650 Cl  0  0  0  0  0  0  0  0  0  0  0  0
   -2.7130   -0.4700   -1.5390 C   0  0  0  0  0  0  0  0  0  0  0  0
   -2.3050   -1.4620   -2.3910 C   0  0  0  0  0  0  0  0  0  0  0  0
   -1.3260   -2.1180   -1.7430 N   0  0  0  0  0  0  0  0  0  0  0  0
   -1.1140   -1.5820   -0.5470 N   0  0  0  0  0  0  0  0  0  0  0  0
   -0.1380   -1.9940    0.4730 C   0  0  0  0  0  0  0  0  0  0  0  0
    1.0990   -1.2150    0.1910 C   0  0  0  0  0  0  0  0  0  0  0  0
    1.4000   -0.1330    0.9870 C   0  0  0  0  0  0  0  0  0  0  0  0
    2.5540    0.5940    0.7140 C   0  0  0  0  0  0  0  0  0  0  0  0
    3.4000    0.2700   -0.3190 C   0  0  0  0  0  0  0  0  0  0  0  0
    3.0880   -0.8120   -1.1050 C   0  0  0  0  0  0  0  0  0  0  0  0
    1.9380   -1.5440   -0.8400 C   0  0  0  0  0  0  0  0  0  0  0  0
    1.4890   -3.0570   -1.9260 Br  0  0  0  0  0  0  0  0  0  0  0  0
    4.4520    1.1640   -0.3430 O   0  0  0  0  0  0  0  0  0  0  0  0
    4.3190    2.0770    0.7310 C   0  0  0  0  0  0  0  0  0  0  0  0
    3.0950    1.7080    1.3360 O   0  0  0  0  0  0  0  0  0  0  0  0
   -1.9550   -0.5470   -0.3670 C   0  0  0  0  0  0  0  0  0  0  0  0
   -2.2190    0.3540    0.5850 N   0  0  0  0  0  0  0  0  0  0  0  0
  1  2  1  0
  2  3  2  0
  2 22  1  0
  3  4  1  0
  4  5  1  0
  4  6  2  0
  6  7  1  0
  6 21  1  0
  7  8  2  0
  8  9  1  0
  9 10  1  0
  9 21  1  0
 10 11  1  0
 11 12  2  0
 11 16  1  0
 12 13  1  0
 13 14  2  0
 13 20  1  0
 14 15  1  0
 14 18  1  0
 15 16  2  0
 16 17  1  0
 18 19  1  0
 19 20  1  0
 21 22  2  0
M  END
