
     RDKit          3D

 21 24  0  0  0  0  0  0  0  0999 V2000
   -1.5280   -2.9460   -0.4090 O   0  0  0  0  0  0  0  0  0  0  0  0
   -2.4380   -2.0940   -0.3330 C   0  0  0  0  0  0  0  0  0  0  0  0
   -3.7650   -2.3940   -0.3940 N   0  0  0  0  0  0  0  0  0  0  0  0
   -4.4460   -1.3020   -0.2850 O   0  0  0  0  0  0  0  0  0  0  0  0
   -3.6290   -0.2690   -0.1530 C   0  0  0  0  0  0  0  0  0  0  0  0
   -3.9360    1.0700   -0.0100 C   0  0  0  0  0  0  0  0  0  0  0  0
   -5.7300    1.6950    0.0230 Br  0  0  0  0  0  0  0  0  0  0  0  0
   -2.8810    1.9320    0.1080 C   0  0  0  0  0  0  0  0  0  0  0  0
   -1.5580    1.4750    0.0850 C   0  0  0  0  0  0  0  0  0  0  0  0
   -1.2480    0.1600   -0.0560 C   0  0  0  0  0  0  0  0  0  0  0  0
    0.0400   -0.3880   -0.0910 N   0  0  0  0  0  0  0  0  0  0  0  0
    1.2750    0.3070    0.0130 C   0  0  0  0  0  0  0  0  0  0  0  0
    1.4060    1.6230    0.1620 N   0  0  0  0  0  0  0  0  0  0  0  0
    2.5530    2.3050    0.2620 C   0  0  0  0  0  0  0  0  0  0  0  0
    3.7260    1.5890    0.2070 C   0  0  0  0  0  0  0  0  0  0  0  0
    3.6650    0.2240    0.0530 C   0  0  0  0  0  0  0  0  0  0  0  0
    4.6060   -0.7550   -0.0370 N   0  0  0  0  0  0  0  0  0  0  0  0
    4.0320   -1.9360   -0.1810 N   0  0  0  0  0  0  0  0  0  0  0  0
    2.7020   -1.7970   -0.1930 C   0  0  0  0  0  0  0  0  0  0  0  0
    2.4600   -0.4420   -0.0470 C   0  0  0  0  0  0  0  0  0  0  0  0
   -2.3350   -0.7250   -0.1770 C   0  0  0  0  0  0  0  0  0  0  0  0
  1  2  2  0
  2  3  1  0
  2 21  1  0
  3  4  1  0
  4  5  1  0
  5  6  2  0
  5 21  1  0
  6  7  1  0
  6  8  1  0
  8  9  2  0
  9 10  1  0
 10 11  1  0
 10 21  2  0
 11 12  1  0
 12 13  2  0
 12 20  1  0
 13 14  1  0
 14 15  2  0
 15 16  1  0
 16 17  1  0
 16 20  2  0
 17 18  1  0
 18 19  2  0
 19 20  1  0
M  END
