
     RDKit          3D

 21 23  0  0  0  0  0  0  0  0999 V2000
    0.9780   -1.6570   -0.1250 C   0  0  0  0  0  0  0  0  0  0  0  0
    0.7360   -0.2630    0.3360 C   0  0  0  0  0  0  0  0  0  0  0  0
    1.6790    0.7290    0.4840 C   0  0  0  0  0  0  0  0  0  0  0  0
    3.1160    0.7000    0.2440 C   0  0  0  0  0  0  0  0  0  0  0  0
    3.9180   -0.3130   -0.1920 C   0  0  0  0  0  0  0  0  0  0  0  0
    5.2070    0.1880   -0.2460 C   0  0  0  0  0  0  0  0  0  0  0  0
    5.1870    1.4680    0.1460 N   0  0  0  0  0  0  0  0  0  0  0  0
    3.9360    1.7550    0.4330 N   0  0  0  0  0  0  0  0  0  0  0  0
    1.0070    1.7760    0.9090 O   0  0  0  0  0  0  0  0  0  0  0  0
   -0.2550    1.5490    1.0440 C   0  0  0  0  0  0  0  0  0  0  0  0
   -1.1850    2.3140    1.4250 O   0  0  0  0  0  0  0  0  0  0  0  0
   -0.4690    0.2780    0.6940 N   0  0  0  0  0  0  0  0  0  0  0  0
   -1.6820   -0.4450    0.6710 C   0  0  0  0  0  0  0  0  0  0  0  0
   -1.9200   -1.6470    1.3100 C   0  0  0  0  0  0  0  0  0  0  0  0
   -3.2130   -2.0380    1.0550 C   0  0  0  0  0  0  0  0  0  0  0  0
   -3.7710   -1.1000    0.2740 N   0  0  0  0  0  0  0  0  0  0  0  0
   -2.8630   -0.1370    0.0360 C   0  0  0  0  0  0  0  0  0  0  0  0
   -3.1030    1.0330   -0.7690 C   0  0  0  0  0  0  0  0  0  0  0  0
   -4.2010    1.7410   -0.8250 C   0  0  0  0  0  0  0  0  0  0  0  0
   -5.5680    1.2850    0.1500 Cl  0  0  0  0  0  0  0  0  0  0  0  0
   -4.3340    3.2590   -1.9500 Br  0  0  0  0  0  0  0  0  0  0  0  0
  1  2  1  0
  2  3  2  0
  2 12  1  0
  3  4  1  0
  3  9  1  0
  4  5  1  0
  4  8  2  0
  5  6  2  0
  6  7  1  0
  7  8  1  0
  9 10  1  0
 10 11  2  0
 10 12  1  0
 12 13  1  0
 13 14  1  0
 13 17  2  0
 14 15  2  0
 15 16  1  0
 16 17  1  0
 17 18  1  0
 18 19  2  3
 19 20  1  0
 19 21  1  0
M  END
