
     RDKit          3D

 21 23  0  0  0  0  0  0  0  0999 V2000
    0.7540    1.9510    1.0520 O   0  0  0  0  0  0  0  0  0  0  0  0
    1.6080    1.1220    0.6460 C   0  0  0  0  0  0  0  0  0  0  0  0
    2.9680    1.4250    0.8410 N   0  0  0  0  0  0  0  0  0  0  0  0
    3.9820    0.5300    0.4050 C   0  0  0  0  0  0  0  0  0  0  0  0
    5.2720    0.8340    0.5990 C   0  0  0  0  0  0  0  0  0  0  0  0
    5.6900    2.4960    1.4720 Br  0  0  0  0  0  0  0  0  0  0  0  0
    3.5450   -0.6650   -0.2260 N   0  0  0  0  0  0  0  0  0  0  0  0
    4.5280   -1.5970   -0.6830 C   0  0  0  0  0  0  0  0  0  0  0  0
    4.0490   -2.7090   -1.2720 C   0  0  0  0  0  0  0  0  0  0  0  0
    2.6700   -2.9630   -1.4430 N   0  0  0  0  0  0  0  0  0  0  0  0
    1.7750   -2.1460   -1.0440 N   0  0  0  0  0  0  0  0  0  0  0  0
    2.1600   -0.9320   -0.4040 C   0  0  0  0  0  0  0  0  0  0  0  0
    1.1940   -0.0900    0.0060 C   0  0  0  0  0  0  0  0  0  0  0  0
   -0.1980   -0.4700   -0.2300 C   0  0  0  0  0  0  0  0  0  0  0  0
   -0.4540   -1.5870   -0.8160 O   0  0  0  0  0  0  0  0  0  0  0  0
   -1.3430    0.2680    0.1210 N   0  0  0  0  0  0  0  0  0  0  0  0
   -2.6960   -0.1910   -0.1550 C   0  0  2  0  0  0  0  0  0  0  0  0
   -3.4940    0.8000   -0.9480 C   0  0  0  0  0  0  0  0  0  0  0  0
   -4.9260    0.3440   -0.6500 C   0  0  0  0  0  0  0  0  0  0  0  0
   -4.8700    0.1480    0.8670 C   0  0  0  0  0  0  0  0  0  0  0  0
   -3.4590   -0.3170    1.1470 C   0  0  0  0  0  0  0  0  0  0  0  0
  1  2  2  0
  2  3  1  0
  2 13  1  0
  3  4  1  0
  4  5  2  3
  4  7  1  0
  5  6  1  0
  7  8  1  0
  7 12  1  0
  8  9  2  0
  9 10  1  0
 10 11  2  0
 11 12  1  0
 12 13  2  0
 13 14  1  0
 14 15  2  0
 14 16  1  0
 17 16  1  1
 17 18  1  0
 17 21  1  0
 18 19  1  0
 19 20  1  0
 20 21  1  0
M  END
