
     RDKit          3D

 25 27  0  0  0  0  0  0  0  0999 V2000
   -2.5770    2.6570    0.3030 O   0  0  0  0  0  0  0  0  0  0  0  0
   -1.9180    1.6180   -0.0630 C   0  0  0  0  0  0  0  0  0  0  0  0
   -0.6460    1.7910   -0.7090 C   0  0  0  0  0  0  0  0  0  0  0  0
    0.0750    0.7690   -1.1060 C   0  0  0  0  0  0  0  0  0  0  0  0
   -0.1190   -0.5810   -1.0440 O   0  0  0  0  0  0  0  0  0  0  0  0
    0.8870   -1.3320   -1.5800 C   0  0  0  0  0  0  0  0  0  0  0  0
    1.0120   -2.5850   -1.6780 O   0  0  0  0  0  0  0  0  0  0  0  0
    1.8720   -0.3900   -2.0580 N   0  0  0  0  0  0  0  0  0  0  0  0
    3.0750   -0.7620   -2.7260 C   0  0  0  0  0  0  0  0  0  0  0  0
    4.2420   -0.9980   -1.9010 C   0  0  0  0  0  0  0  0  0  0  0  0
    5.3420   -1.3540   -2.5400 O   0  0  0  0  0  0  0  0  0  0  0  0
    4.4120   -0.9110   -0.4790 C   0  0  0  0  0  0  0  0  0  0  0  0
    3.6170   -0.5960    0.5900 C   0  0  0  0  0  0  0  0  0  0  0  0
    4.1230   -0.6180    1.8200 C   0  0  0  0  0  0  0  0  0  0  0  0
    5.4250   -0.9510    2.0360 C   0  0  0  0  0  0  0  0  0  0  0  0
    6.0300   -1.2740    0.3230 S   0  0  0  0  0  0  0  0  0  0  0  0
    1.3810    0.9310   -1.7700 C   0  0  0  0  0  0  0  0  0  0  0  0
    1.9920    1.9870   -2.0540 O   0  0  0  0  0  0  0  0  0  0  0  0
   -2.5620    0.3930    0.2340 N   0  0  0  0  0  0  0  0  0  0  0  0
   -3.8470    0.3760    0.8910 C   0  0  0  0  0  0  0  0  0  0  0  0
   -4.9360   -0.1430    0.3980 C   0  0  0  0  0  0  0  0  0  0  0  0
   -6.0750    0.0270    1.3650 C   0  0  0  0  0  0  0  0  0  0  0  0
   -5.4100    0.7380    2.4880 C   0  0  0  0  0  0  0  0  0  0  0  0
   -4.1110    0.9390    2.2060 C   0  0  0  0  0  0  0  0  0  0  0  0
   -2.8650    1.8130    3.3550 Br  0  0  0  0  0  0  0  0  0  0  0  0
  1  2  2  0
  2  3  1  0
  2 19  1  0
  3  4  2  3
  4  5  1  0
  4 17  1  0
  5  6  1  0
  6  7  2  0
  6  8  1  0
  8  9  1  0
  8 17  1  0
  9 10  1  0
 10 11  2  0
 10 12  1  0
 12 13  2  0
 12 16  1  0
 13 14  1  0
 14 15  2  0
 15 16  1  0
 17 18  2  0
 19 20  1  0
 20 21  2  0
 20 24  1  0
 21 22  1  0
 22 23  1  0
 23 24  2  0
 24 25  1  0
M  END
