
     RDKit          3D

 25 27  0  0  0  0  0  0  0  0999 V2000
    1.6520    1.3430    0.6530 O   0  0  0  0  0  0  0  0  0  0  0  0
    0.6660    0.6440    0.9420 C   0  0  0  0  0  0  0  0  0  0  0  0
    0.7790   -0.3880    1.8400 O   0  0  0  0  0  0  0  0  0  0  0  0
    2.0190   -0.6570    2.4390 C   0  0  0  0  0  0  0  0  0  0  0  0
    3.0060   -0.9870    1.3450 C   0  0  0  0  0  0  0  0  0  0  0  0
    3.2190   -2.2350    0.8060 C   0  0  0  0  0  0  0  0  0  0  0  0
    4.1920   -2.1050   -0.1550 C   0  0  0  0  0  0  0  0  0  0  0  0
    4.5300   -0.7680   -0.1560 C   0  0  0  0  0  0  0  0  0  0  0  0
    5.5470   -0.1550   -1.0370 C   0  0  0  0  0  0  0  0  0  0  0  0
    6.1420   -0.9030   -1.8380 O   0  0  0  0  0  0  0  0  0  0  0  0
    5.8510    1.2270   -0.9920 N   0  0  0  0  0  0  0  0  0  0  0  0
    7.0530    1.9930   -2.0230 S   0  0  0  0  0  0  0  0  0  0  0  0
    3.8040   -0.1570    0.7430 O   0  0  0  0  0  0  0  0  0  0  0  0
   -0.6240    0.9120    0.3270 C   0  0  0  0  0  0  0  0  0  0  0  0
   -1.8180    0.2530    0.5200 C   0  0  0  0  0  0  0  0  0  0  0  0
   -2.7800    0.8480   -0.2690 C   0  0  0  0  0  0  0  0  0  0  0  0
   -4.1790    0.4650   -0.3700 C   0  0  0  0  0  0  0  0  0  0  0  0
   -4.6390   -0.5850    0.3700 C   0  0  0  0  0  0  0  0  0  0  0  0
   -5.9630   -0.9360    0.2650 C   0  0  0  0  0  0  0  0  0  0  0  0
   -6.7950   -0.2290   -0.5780 C   0  0  0  0  0  0  0  0  0  0  0  0
   -6.3640    0.8280   -1.3340 C   0  0  0  0  0  0  0  0  0  0  0  0
   -7.4780    1.8290   -2.5090 Br  0  0  0  0  0  0  0  0  0  0  0  0
   -5.0110    1.1590   -1.2040 C   0  0  0  0  0  0  0  0  0  0  0  0
   -2.1600    1.8270   -0.9030 O   0  0  0  0  0  0  0  0  0  0  0  0
   -0.9090    1.8920   -0.5790 N   0  0  0  0  0  0  0  0  0  0  0  0
  1  2  2  0
  2  3  1  0
  2 14  1  0
  3  4  1  0
  4  5  1  0
  5  6  2  0
  5 13  1  0
  6  7  1  0
  7  8  2  0
  8  9  1  0
  8 13  1  0
  9 10  2  0
  9 11  1  0
 11 12  1  0
 14 15  1  0
 14 25  2  0
 15 16  2  0
 16 17  1  0
 16 24  1  0
 17 18  2  0
 17 23  1  0
 18 19  1  0
 19 20  2  0
 20 21  1  0
 21 22  1  0
 21 23  2  0
 24 25  1  0
M  END
