
     RDKit          3D

 25 27  0  0  0  0  0  0  0  0999 V2000
   -5.8330   -2.3390   -0.2880 C   0  0  0  0  0  0  0  0  0  0  0  0
   -4.5650   -1.7120   -0.2260 O   0  0  0  0  0  0  0  0  0  0  0  0
   -4.4380   -0.3410   -0.1900 C   0  0  0  0  0  0  0  0  0  0  0  0
   -5.5730    0.4330   -0.2140 C   0  0  0  0  0  0  0  0  0  0  0  0
   -5.4560    1.8260   -0.1770 C   0  0  0  0  0  0  0  0  0  0  0  0
   -4.2030    2.4010   -0.1170 C   0  0  0  0  0  0  0  0  0  0  0  0
   -4.0560    4.3010   -0.0670 Br  0  0  0  0  0  0  0  0  0  0  0  0
   -3.0810    1.5830   -0.0950 C   0  0  0  0  0  0  0  0  0  0  0  0
   -3.1650    0.2070   -0.1300 C   0  0  0  0  0  0  0  0  0  0  0  0
   -1.9850   -0.6810   -0.1070 C   0  0  0  0  0  0  0  0  0  0  0  0
   -0.8070    0.0950   -0.0450 O   0  0  0  0  0  0  0  0  0  0  0  0
    0.4480   -0.4840   -0.0120 C   0  0  0  0  0  0  0  0  0  0  0  0
    0.5520   -1.7150   -0.0370 O   0  0  0  0  0  0  0  0  0  0  0  0
    1.6560    0.3020    0.0510 N   0  0  0  0  0  0  0  0  0  0  0  0
    2.9320   -0.2930    0.0840 C   0  0  0  0  0  0  0  0  0  0  0  0
    4.0760    0.3250    0.1410 C   0  0  0  0  0  0  0  0  0  0  0  0
    4.0720    1.7940    0.1750 C   0  0  0  0  0  0  0  0  0  0  0  0
    3.0270    2.4660    0.1520 O   0  0  0  0  0  0  0  0  0  0  0  0
    5.3120    2.4510    0.2360 O   0  0  0  0  0  0  0  0  0  0  0  0
    6.5390    1.8170    0.2670 C   0  0  0  0  0  0  0  0  0  0  0  0
    6.4480    0.3880    0.2300 N   0  0  0  0  0  0  0  0  0  0  0  0
    5.3860   -0.3290    0.1740 C   0  0  0  0  0  0  0  0  0  0  0  0
    5.5730   -1.7800    0.1470 C   0  0  0  0  0  0  0  0  0  0  0  0
    4.5970   -2.6490    0.0900 C   0  0  0  0  0  0  0  0  0  0  0  0
    2.9210   -2.1180    0.0410 S   0  0  0  0  0  0  0  0  0  0  0  0
  1  2  1  0
  2  3  1  0
  3  4  2  0
  3  9  1  0
  4  5  1  0
  5  6  2  0
  6  7  1  0
  6  8  1  0
  8  9  2  0
  9 10  1  0
 10 11  1  0
 11 12  1  0
 12 13  2  0
 12 14  1  0
 14 15  1  0
 15 16  2  0
 15 25  1  0
 16 17  1  0
 16 22  1  0
 17 18  2  0
 17 19  1  0
 19 20  1  0
 20 21  1  0
 21 22  2  0
 22 23  1  0
 23 24  2  0
 24 25  1  0
M  END
