
     RDKit          3D

 25 27  0  0  0  0  0  0  0  0999 V2000
   -1.9920   -2.1010   -1.8110 C   0  0  0  0  0  0  0  0  0  0  0  0
   -1.7480   -1.0260   -0.9240 O   0  0  0  0  0  0  0  0  0  0  0  0
   -2.7470   -0.1790   -0.4660 C   0  0  0  0  0  0  0  0  0  0  0  0
   -4.0820   -0.3420   -0.8650 C   0  0  0  0  0  0  0  0  0  0  0  0
   -5.0710    0.5040   -0.4050 C   0  0  0  0  0  0  0  0  0  0  0  0
   -4.7040    1.5130    0.4560 C   0  0  0  0  0  0  0  0  0  0  0  0
   -5.6540    2.3740    0.9350 O   0  0  0  0  0  0  0  0  0  0  0  0
   -7.0120    2.3330    0.6270 C   0  0  0  0  0  0  0  0  0  0  0  0
   -7.9790    3.7430    1.5300 Br  0  0  0  0  0  0  0  0  0  0  0  0
   -3.3700    1.6750    0.8530 C   0  0  0  0  0  0  0  0  0  0  0  0
   -2.3960    0.8290    0.3910 C   0  0  0  0  0  0  0  0  0  0  0  0
   -0.9770    0.9680    0.7880 C   0  0  0  0  0  0  0  0  0  0  0  0
   -0.5720    2.0110    1.6830 C   0  0  0  0  0  0  0  0  0  0  0  0
    1.1520    1.7550    1.8340 S   0  0  0  0  0  0  0  0  0  0  0  0
    1.1510    0.2680    0.6730 C   0  0  0  0  0  0  0  0  0  0  0  0
    2.4170   -0.3970    0.4120 N   0  0  0  0  0  0  0  0  0  0  0  0
    3.6050    0.0690    1.0170 C   0  0  0  0  0  0  0  0  0  0  0  0
    3.6110    1.0670    1.7970 O   0  0  0  0  0  0  0  0  0  0  0  0
    4.8640   -0.6250    0.7320 C   0  0  0  0  0  0  0  0  0  0  0  0
    5.9990   -0.2190    1.2790 C   0  0  0  0  0  0  0  0  0  0  0  0
    7.1410   -0.9380    0.9500 O   0  0  0  0  0  0  0  0  0  0  0  0
    7.2250   -1.4740   -0.3780 C   0  0  0  0  0  0  0  0  0  0  0  0
    6.0280   -2.3880   -0.5440 C   0  0  0  0  0  0  0  0  0  0  0  0
    4.8730   -1.7120   -0.1140 O   0  0  0  0  0  0  0  0  0  0  0  0
    0.0230    0.2270    0.4120 N   0  0  0  0  0  0  0  0  0  0  0  0
  1  2  1  0
  2  3  1  0
  3  4  2  0
  3 11  1  0
  4  5  1  0
  5  6  2  0
  6  7  1  0
  6 10  1  0
  7  8  1  0
  8  9  1  0
 10 11  2  0
 11 12  1  0
 12 13  2  0
 12 25  1  0
 13 14  1  0
 14 15  1  0
 15 16  1  0
 15 25  2  0
 16 17  1  0
 17 18  2  0
 17 19  1  0
 19 20  2  0
 19 24  1  0
 20 21  1  0
 21 22  1  0
 22 23  1  0
 23 24  1  0
M  END
