
     RDKit          3D

 25 27  0  0  0  0  0  0  0  0999 V2000
   -8.4700   -1.0680   -0.7350 C   0  0  0  0  0  0  0  0  0  0  0  0
   -7.3730   -0.3000   -0.2810 O   0  0  0  0  0  0  0  0  0  0  0  0
   -6.0690   -0.5840   -0.6470 C   0  0  0  0  0  0  0  0  0  0  0  0
   -5.8700   -1.5560   -1.4040 O   0  0  0  0  0  0  0  0  0  0  0  0
   -4.9350    0.2020   -0.1840 C   0  0  0  0  0  0  0  0  0  0  0  0
   -3.6580   -0.0160   -0.4960 C   0  0  0  0  0  0  0  0  0  0  0  0
   -2.6600    0.7720   -0.0160 C   0  0  0  0  0  0  0  0  0  0  0  0
   -1.2080    0.7390   -0.2080 C   0  0  0  0  0  0  0  0  0  0  0  0
   -0.5140   -0.0940    0.8020 C   0  0  0  0  0  0  0  0  0  0  0  0
   -1.1200   -0.6990    1.7170 O   0  0  0  0  0  0  0  0  0  0  0  0
    0.9070   -0.2290    0.7540 N   0  0  0  0  0  0  0  0  0  0  0  0
    1.6320   -1.0290    1.7150 C   0  0  0  0  0  0  0  0  0  0  0  0
    3.0840   -1.0080    1.4500 C   0  0  0  0  0  0  0  0  0  0  0  0
    3.7950   -0.3650    0.4680 C   0  0  0  0  0  0  0  0  0  0  0  0
    5.1470   -0.6690    0.6590 C   0  0  0  0  0  0  0  0  0  0  0  0
    6.2540   -0.1920   -0.1650 C   0  0  0  0  0  0  0  0  0  0  0  0
    6.1310    0.6310   -1.2540 C   0  0  0  0  0  0  0  0  0  0  0  0
    7.3800    0.8680   -1.7760 C   0  0  0  0  0  0  0  0  0  0  0  0
    8.2440    0.1480   -0.9470 C   0  0  0  0  0  0  0  0  0  0  0  0
    7.5370   -0.4530   -0.0210 O   0  0  0  0  0  0  0  0  0  0  0  0
    5.1570   -1.4700    1.7360 N   0  0  0  0  0  0  0  0  0  0  0  0
    3.9750   -1.6600    2.1850 O   0  0  0  0  0  0  0  0  0  0  0  0
   -3.5340    1.9830    1.0000 S   0  0  0  0  0  0  0  0  0  0  0  0
   -5.1490    1.3340    0.6970 C   0  0  0  0  0  0  0  0  0  0  0  0
   -6.8820    1.9620    1.3710 Br  0  0  0  0  0  0  0  0  0  0  0  0
  1  2  1  0
  2  3  1  0
  3  4  2  0
  3  5  1  0
  5  6  1  0
  5 24  2  0
  6  7  2  0
  7  8  1  0
  7 23  1  0
  8  9  1  0
  9 10  2  0
  9 11  1  0
 11 12  1  0
 12 13  1  0
 13 14  2  0
 13 22  1  0
 14 15  1  0
 15 16  1  0
 15 21  2  0
 16 17  2  0
 16 20  1  0
 17 18  1  0
 18 19  2  0
 19 20  1  0
 21 22  1  0
 23 24  1  0
 24 25  1  0
M  END
