
     RDKit          3D

 25 27  0  0  0  0  0  0  0  0999 V2000
    5.1150   -2.5610   -0.0830 C   0  0  0  0  0  0  0  0  0  0  0  0
    3.7470   -2.8120    0.1510 O   0  0  0  0  0  0  0  0  0  0  0  0
    2.8060   -1.8000   -0.1830 C   0  0  0  0  0  0  0  0  0  0  0  0
    3.3190   -0.7760   -0.6580 O   0  0  0  0  0  0  0  0  0  0  0  0
    1.4200   -2.0280    0.0430 C   0  0  0  0  0  0  0  0  0  0  0  0
    0.4170   -1.0010   -0.2790 C   0  0  0  0  0  0  0  0  0  0  0  0
    0.4160    0.1980   -0.7530 C   0  0  0  0  0  0  0  0  0  0  0  0
    1.4950    1.0180   -1.1670 N   0  0  0  0  0  0  0  0  0  0  0  0
    2.0210    2.0500   -0.3400 C   0  0  0  0  0  0  0  0  0  0  0  0
    3.3970    3.1180   -0.8420 S   0  0  0  0  0  0  0  0  0  0  0  0
    3.3700    4.0560    0.7350 C   0  0  0  0  0  0  0  0  0  0  0  0
    2.3720    3.4840    1.4310 C   0  0  0  0  0  0  0  0  0  0  0  0
    1.6890    2.4720    0.8910 C   0  0  0  0  0  0  0  0  0  0  0  0
    0.2280    1.5810    1.8240 Br  0  0  0  0  0  0  0  0  0  0  0  0
   -0.9880    0.7250   -0.8460 C   0  0  0  0  0  0  0  0  0  0  0  0
   -1.2740    1.8810   -1.2790 O   0  0  0  0  0  0  0  0  0  0  0  0
   -1.8350   -0.3010   -0.3710 N   0  0  0  0  0  0  0  0  0  0  0  0
   -3.2830   -0.2020   -0.2920 C   0  0  0  0  0  0  0  0  0  0  0  0
   -3.9780   -1.1980    0.1620 C   0  0  0  0  0  0  0  0  0  0  0  0
   -5.4450   -1.1880    0.2780 C   0  0  0  0  0  0  0  0  0  0  0  0
   -5.9850    0.0140   -0.1620 O   0  0  0  0  0  0  0  0  0  0  0  0
   -5.2620    1.0760   -0.6450 C   0  0  0  0  0  0  0  0  0  0  0  0
   -3.9350    1.0190   -0.7280 C   0  0  0  0  0  0  0  0  0  0  0  0
   -1.0250   -1.3590   -0.0190 C   0  0  0  0  0  0  0  0  0  0  0  0
   -1.3920   -2.4790    0.4540 O   0  0  0  0  0  0  0  0  0  0  0  0
  1  2  1  0
  2  3  1  0
  3  4  2  0
  3  5  1  0
  5  6  1  0
  6  7  2  0
  6 24  1  0
  7  8  1  0
  7 15  1  0
  8  9  1  0
  9 10  1  0
  9 13  2  0
 10 11  1  0
 11 12  2  0
 12 13  1  0
 13 14  1  0
 15 16  2  0
 15 17  1  0
 17 18  1  0
 17 24  1  0
 18 19  2  0
 18 23  1  0
 19 20  1  0
 20 21  1  0
 21 22  1  0
 22 23  2  0
 24 25  2  0
M  END
