
     RDKit          3D

 22 22  0  0  0  0  0  0  0  0999 V2000
   -0.9990   -2.1550   -2.7100 O   0  0  0  0  0  0  0  0  0  0  0  0
   -0.5790   -2.0340   -1.5340 C   0  0  0  0  0  0  0  0  0  0  0  0
   -0.6310   -3.1830   -0.7290 O   0  0  0  0  0  0  0  0  0  0  0  0
   -0.0490   -0.8100   -0.9540 C   0  0  2  0  0  0  0  0  0  0  0  0
    1.3010   -1.0230   -0.3210 C   0  0  0  0  0  0  0  0  0  0  0  0
    1.9080    0.2940    0.0290 C   0  0  2  0  0  0  0  0  0  0  0  0
    2.9420    0.1690    1.1090 C   0  0  0  0  0  0  0  0  0  0  0  0
    3.9100   -0.7910    0.8540 O   0  0  0  0  0  0  0  0  0  0  0  0
    4.6420   -0.5000   -0.2630 C   0  0  0  0  0  0  0  0  0  0  0  0
    5.3100    0.7390   -0.1310 O   0  0  0  0  0  0  0  0  0  0  0  0
    0.9620    1.2710    0.2920 O   0  0  0  0  0  0  0  0  0  0  0  0
   -0.2150    0.7140    0.8740 C   0  0  1  0  0  0  0  0  0  0  0  0
    0.2830   -0.2730    1.7360 O   0  0  0  0  0  0  0  0  0  0  0  0
   -0.8350    1.7330    1.7790 C   0  0  0  0  0  0  0  0  0  0  0  0
   -1.9530    1.2740    2.3790 O   0  0  0  0  0  0  0  0  0  0  0  0
   -1.0320   -0.0010   -0.1120 C   0  0  2  0  0  0  0  0  0  0  0  0
   -1.9690   -0.9430    0.6380 C   0  0  0  0  0  0  0  0  0  0  0  0
   -2.6940   -1.7420   -0.2560 O   0  0  0  0  0  0  0  0  0  0  0  0
   -1.8780    0.7510   -1.0710 C   0  0  1  0  0  0  0  0  0  0  0  0
   -2.5410   -0.1970   -1.9100 O   0  0  0  0  0  0  0  0  0  0  0  0
   -2.9730    1.6100   -0.5760 C   0  0  0  0  0  0  0  0  0  0  0  0
   -3.5640    2.1700   -1.7470 O   0  0  0  0  0  0  0  0  0  0  0  0
  1  2  2  0
  2  3  1  0
  4  2  1  1
  4  5  1  0
  4 16  1  0
  5  6  1  0
  6  7  1  1
  6 11  1  0
  7  8  1  0
  8  9  1  0
  9 10  1  0
 11 12  1  0
 12 13  1  1
 12 14  1  0
 12 16  1  0
 14 15  1  0
 16 17  1  1
 16 19  1  0
 17 18  1  0
 19 20  1  6
 19 21  1  0
 21 22  1  0
M  END
