
     RDKit          3D

 28 30  0  0  0  0  0  0  0  0999 V2000
   -6.4100    0.7040    1.0560 C   0  0  0  0  0  0  0  0  0  0  0  0
   -5.3320    1.4170    0.8770 C   0  0  0  0  0  0  0  0  0  0  0  0
   -5.3230    2.8900    1.1920 C   0  0  0  0  0  0  0  0  0  0  0  0
   -6.6320    3.2980    1.6830 N   0  0  0  0  0  0  0  0  0  0  0  0
   -4.1200    0.7900    0.3660 C   0  0  0  0  0  0  0  0  0  0  0  0
   -3.0330    1.5850    0.2130 N   0  0  0  0  0  0  0  0  0  0  0  0
   -1.9080    1.0930   -0.2430 N   0  0  0  0  0  0  0  0  0  0  0  0
   -1.7610   -0.2050   -0.5830 C   0  0  0  0  0  0  0  0  0  0  0  0
   -0.4520   -0.6550   -1.0420 C   0  0  0  0  0  0  0  0  0  0  0  0
   -0.2380   -1.2470   -2.1970 C   0  0  0  0  0  0  0  0  0  0  0  0
   -1.3610   -1.4990   -3.1480 C   0  0  0  0  0  0  0  0  0  0  0  0
    1.0330   -1.6390   -2.5360 O   0  0  0  0  0  0  0  0  0  0  0  0
    2.1730   -1.4580   -1.7290 C   0  0  0  0  0  0  0  0  0  0  0  0
    3.4850   -1.9380   -2.2400 C   0  0  0  0  0  0  0  0  0  0  0  0
    3.3770   -3.4450   -2.4250 C   0  0  0  0  0  0  0  0  0  0  0  0
    1.9820   -0.8680   -0.5680 C   0  0  0  0  0  0  0  0  0  0  0  0
    3.1080   -0.6480    0.3180 C   0  0  0  0  0  0  0  0  0  0  0  0
    2.9420   -0.0580    1.4810 N   0  0  0  0  0  0  0  0  0  0  0  0
    4.0330    0.1650    2.3630 C   0  0  0  0  0  0  0  0  0  0  0  0
    4.4090   -0.5610    3.4290 N   0  0  0  0  0  0  0  0  0  0  0  0
    5.4740   -0.0120    3.9750 N   0  0  0  0  0  0  0  0  0  0  0  0
    5.8120    1.0830    3.2740 C   0  0  0  0  0  0  0  0  0  0  0  0
    4.9130    1.1810    2.2790 N   0  0  0  0  0  0  0  0  0  0  0  0
    4.9300    2.2450    1.2850 C   0  0  0  0  0  0  0  0  0  0  0  0
    0.6660   -0.3900   -0.0750 C   0  0  0  0  0  0  0  0  0  0  0  0
   -2.8540   -1.0060   -0.4280 C   0  0  0  0  0  0  0  0  0  0  0  0
   -2.8190   -2.2480   -0.7140 O   0  0  0  0  0  0  0  0  0  0  0  0
   -4.0200   -0.4890    0.0460 N   0  0  0  0  0  0  0  0  0  0  0  0
  1  2  2  0
  2  3  1  0
  2  5  1  0
  3  4  1  0
  5  6  2  0
  5 28  1  0
  6  7  1  0
  7  8  2  0
  8  9  1  0
  8 26  1  0
  9 10  2  0
  9 25  1  0
 10 11  1  0
 10 12  1  0
 12 13  1  0
 13 14  1  0
 13 16  2  0
 14 15  1  0
 16 17  1  0
 16 25  1  0
 17 18  2  3
 18 19  1  0
 19 20  2  0
 19 23  1  0
 20 21  1  0
 21 22  2  0
 22 23  1  0
 23 24  1  0
 26 27  2  0
 26 28  1  0
M  END
