
     RDKit          3D

 28 31  0  0  0  0  0  0  0  0999 V2000
    2.2520   -1.4920   -0.6300 O   0  0  0  0  0  0  0  0  0  0  0  0
    2.5740   -0.5660    0.1090 C   0  0  0  0  0  0  0  0  0  0  0  0
    3.9140   -0.0390    0.0280 N   0  0  0  0  0  0  0  0  0  0  0  0
    4.8010   -0.6460   -0.9340 C   0  0  0  0  0  0  0  0  0  0  0  0
    6.1370    0.0050   -0.8950 C   0  0  0  0  0  0  0  0  0  0  0  0
    6.5260    0.9720   -0.1450 N   0  0  0  0  0  0  0  0  0  0  0  0
    7.9010    1.3290   -0.4030 C   0  0  0  0  0  0  0  0  0  0  0  0
    8.3140    0.3830   -1.4830 C   0  0  0  0  0  0  0  0  0  0  0  0
    7.2510   -0.3650   -1.7320 C   0  0  0  0  0  0  0  0  0  0  0  0
    1.6330   -0.0480    1.0090 N   0  0  0  0  0  0  0  0  0  0  0  0
    0.3270   -0.4530    1.1910 C   0  0  0  0  0  0  0  0  0  0  0  0
   -0.4290    0.2300    2.1740 C   0  0  0  0  0  0  0  0  0  0  0  0
   -1.7390   -0.0800    2.4470 C   0  0  0  0  0  0  0  0  0  0  0  0
   -2.3820   -1.0970    1.7550 C   0  0  0  0  0  0  0  0  0  0  0  0
   -3.7380   -1.4730    2.0330 N   0  0  0  0  0  0  0  0  0  0  0  0
   -4.0650   -2.4060    2.9510 N   0  0  0  0  0  0  0  0  0  0  0  0
   -5.3610   -2.5070    2.9550 N   0  0  0  0  0  0  0  0  0  0  0  0
   -5.8840   -1.6820    2.0840 N   0  0  0  0  0  0  0  0  0  0  0  0
   -4.8430   -1.0070    1.4800 C   0  0  0  0  0  0  0  0  0  0  0  0
   -5.0700   -0.0000    0.4470 C   0  0  0  0  0  0  0  0  0  0  0  0
   -4.0830    0.6940   -0.1810 C   0  0  0  0  0  0  0  0  0  0  0  0
   -4.3650    1.6540   -1.1710 C   0  0  0  0  0  0  0  0  0  0  0  0
   -5.6490    1.9350   -1.5510 C   0  0  0  0  0  0  0  0  0  0  0  0
   -5.9340    2.8860   -2.5320 O   0  0  0  0  0  0  0  0  0  0  0  0
   -6.6470    1.2360   -0.9190 C   0  0  0  0  0  0  0  0  0  0  0  0
   -6.3730    0.3010    0.0460 C   0  0  0  0  0  0  0  0  0  0  0  0
   -1.6570   -1.7800    0.7850 C   0  0  0  0  0  0  0  0  0  0  0  0
   -0.3360   -1.4370    0.5380 C   0  0  0  0  0  0  0  0  0  0  0  0
  1  2  2  0
  2  3  1  0
  2 10  1  0
  3  4  1  0
  4  5  1  0
  5  6  2  0
  5  9  1  0
  6  7  1  0
  7  8  1  0
  8  9  2  0
 10 11  1  0
 11 12  2  0
 11 28  1  0
 12 13  1  0
 13 14  2  0
 14 15  1  0
 14 27  1  0
 15 16  1  0
 15 19  1  0
 16 17  2  0
 17 18  1  0
 18 19  2  0
 19 20  1  0
 20 21  2  0
 20 26  1  0
 21 22  1  0
 22 23  2  0
 23 24  1  0
 23 25  1  0
 25 26  2  0
 27 28  2  0
M  END
