
     RDKit          3D

 28 31  0  0  0  0  0  0  0  0999 V2000
   -1.3080   -3.9170   -2.1730 C   0  0  0  0  0  0  0  0  0  0  0  0
   -1.4310   -2.6250   -1.6570 O   0  0  0  0  0  0  0  0  0  0  0  0
   -0.3880   -2.0070   -1.0060 C   0  0  0  0  0  0  0  0  0  0  0  0
    0.8000   -2.6230   -0.8230 C   0  0  0  0  0  0  0  0  0  0  0  0
    1.8800   -1.9990   -0.1600 C   0  0  0  0  0  0  0  0  0  0  0  0
    3.1120   -2.3210    0.1500 N   0  0  0  0  0  0  0  0  0  0  0  0
    3.7350   -1.2750    0.7790 C   0  0  0  0  0  0  0  0  0  0  0  0
    5.0610   -1.3580    1.3850 C   0  0  0  0  0  0  0  0  0  0  0  0
    6.0540   -0.5640    1.3440 C   0  0  0  0  0  0  0  0  0  0  0  0
    6.1580    0.6720    0.6290 C   0  0  0  0  0  0  0  0  0  0  0  0
    7.1350    1.6080    0.8250 C   0  0  0  0  0  0  0  0  0  0  0  0
    7.0400    2.5760   -0.1460 N   0  0  0  0  0  0  0  0  0  0  0  0
    6.0320    2.2860   -0.9480 N   0  0  0  0  0  0  0  0  0  0  0  0
    5.4710    1.1350   -0.5050 C   0  0  0  0  0  0  0  0  0  0  0  0
    2.8090   -0.3070    0.8420 N   0  0  0  0  0  0  0  0  0  0  0  0
    1.6330   -0.6870    0.2860 C   0  0  0  0  0  0  0  0  0  0  0  0
    0.4070   -0.1010    0.0870 C   0  0  0  0  0  0  0  0  0  0  0  0
   -0.6330   -0.7250   -0.5520 C   0  0  0  0  0  0  0  0  0  0  0  0
   -1.9380   -0.0970   -0.8740 C   0  0  0  0  0  0  0  0  0  0  0  0
   -2.7780   -0.0030    0.2280 N   0  0  0  0  0  0  0  0  0  0  0  0
   -3.7150   -1.1730    0.2380 C   0  0  0  0  0  0  0  0  0  0  0  0
   -3.2840    0.9790    0.9700 C   0  0  0  0  0  0  0  0  0  0  0  0
   -4.3430    1.8680    0.4460 C   0  0  0  0  0  0  0  0  0  0  0  0
   -4.3400    3.1170    0.6800 N   0  0  0  0  0  0  0  0  0  0  0  0
   -5.3140    4.0530    0.2330 C   0  0  0  0  0  0  0  0  0  0  0  0
   -6.3850    3.4820   -0.4390 O   0  0  0  0  0  0  0  0  0  0  0  0
   -6.4230    2.1340   -0.7140 C   0  0  0  0  0  0  0  0  0  0  0  0
   -5.4800    1.3610   -0.3100 N   0  0  0  0  0  0  0  0  0  0  0  0
  1  2  1  0
  2  3  1  0
  3  4  2  0
  3 18  1  0
  4  5  1  0
  5  6  1  0
  5 16  2  0
  6  7  2  0
  7  8  1  0
  7 15  1  0
  8  9  2  3
  9 10  1  0
 10 11  1  0
 10 14  2  0
 11 12  2  0
 12 13  1  0
 13 14  1  0
 15 16  1  0
 16 17  1  0
 17 18  2  0
 18 19  1  0
 19 20  1  0
 20 21  1  0
 20 22  1  0
 22 23  1  0
 23 24  2  0
 23 28  1  0
 24 25  1  0
 25 26  1  0
 26 27  1  0
 27 28  2  0
M  END
