
     RDKit          3D

 28 31  0  0  0  0  0  0  0  0999 V2000
   -1.3950   -3.1380   -0.4040 C   0  0  0  0  0  0  0  0  0  0  0  0
   -1.7720   -1.9260   -0.7400 C   0  0  0  0  0  0  0  0  0  0  0  0
   -0.9290   -0.7380   -0.7650 C   0  0  0  0  0  0  0  0  0  0  0  0
   -1.4420    0.4220   -1.1070 C   0  0  0  0  0  0  0  0  0  0  0  0
   -2.8560    0.5230   -1.4510 C   0  0  0  0  0  0  0  0  0  0  0  0
   -3.3820    0.9580   -2.6270 N   0  0  0  0  0  0  0  0  0  0  0  0
   -4.6990    0.9540   -2.4810 C   0  0  0  0  0  0  0  0  0  0  0  0
   -5.5090    1.3040   -3.3860 O   0  0  0  0  0  0  0  0  0  0  0  0
   -5.0240    0.5360   -1.2650 N   0  0  0  0  0  0  0  0  0  0  0  0
   -3.8800    0.2510   -0.5760 C   0  0  0  0  0  0  0  0  0  0  0  0
   -4.0830   -0.2060    0.8090 C   0  0  0  0  0  0  0  0  0  0  0  0
   -5.0320    0.6660    1.5950 C   0  0  0  0  0  0  0  0  0  0  0  0
   -6.1410    1.1800    0.7280 C   0  0  0  0  0  0  0  0  0  0  0  0
   -6.2530    0.3240   -0.5360 C   0  0  0  0  0  0  0  0  0  0  0  0
    0.4360   -0.9120   -0.4090 N   0  0  0  0  0  0  0  0  0  0  0  0
    1.4370    0.0670   -0.3520 C   0  0  0  0  0  0  0  0  0  0  0  0
    1.1710    1.2460   -0.6340 O   0  0  0  0  0  0  0  0  0  0  0  0
    2.8320   -0.2520    0.0390 C   0  0  0  0  0  0  0  0  0  0  0  0
    3.2580   -1.4820    0.3680 N   0  0  0  0  0  0  0  0  0  0  0  0
    4.5340   -1.4330    0.6620 N   0  0  0  0  0  0  0  0  0  0  0  0
    4.9300   -0.1650    0.5230 C   0  0  0  0  0  0  0  0  0  0  0  0
    6.2930    0.3620    0.7500 C   0  0  0  0  0  0  0  0  0  0  0  0
    7.2860   -0.5120    1.1490 C   0  0  0  0  0  0  0  0  0  0  0  0
    8.5580    0.0120    1.3550 C   0  0  0  0  0  0  0  0  0  0  0  0
    8.7680    1.3640    1.1550 C   0  0  0  0  0  0  0  0  0  0  0  0
    7.7880    2.1950    0.7680 N   0  0  0  0  0  0  0  0  0  0  0  0
    6.5470    1.6930    0.5640 C   0  0  0  0  0  0  0  0  0  0  0  0
    3.8690    0.5640    0.1350 N   0  0  0  0  0  0  0  0  0  0  0  0
  1  2  2  0
  2  3  1  0
  3  4  2  3
  3 15  1  0
  4  5  1  0
  5  6  1  0
  5 10  2  0
  6  7  1  0
  7  8  2  0
  7  9  1  0
  9 10  1  0
  9 14  1  0
 10 11  1  0
 11 12  1  0
 12 13  1  0
 13 14  1  0
 15 16  1  0
 16 17  2  0
 16 18  1  0
 18 19  2  0
 18 28  1  0
 19 20  1  0
 20 21  1  0
 21 22  1  0
 21 28  2  0
 22 23  2  0
 22 27  1  0
 23 24  1  0
 24 25  2  0
 25 26  1  0
 26 27  2  0
M  END
