
     RDKit          3D

 14 14  0  0  0  0  0  0  0  0999 V2000
    0.4340   -1.2900   -1.2920 O   0  0  0  0  0  0  0  0  0  0  0  0
   -0.1050   -0.7960   -0.2740 C   0  0  0  0  0  0  0  0  0  0  0  0
    0.6420    0.0730    0.5670 N   0  0  0  0  0  0  0  0  0  0  0  0
    2.0050    0.3200    0.1650 C   0  0  0  0  0  0  0  0  0  0  0  0
    2.4570    1.5220   -0.1130 C   0  0  0  0  0  0  0  0  0  0  0  0
    3.8740    1.3900   -0.4810 C   0  0  0  0  0  0  0  0  0  0  0  0
    4.1580   -0.0460   -0.3720 C   0  0  0  0  0  0  0  0  0  0  0  0
    3.0630   -0.6630    0.0050 C   0  0  0  0  0  0  0  0  0  0  0  0
    2.8960   -2.0110    0.2250 F   0  0  0  0  0  0  0  0  0  0  0  0
   -1.5200   -1.1380    0.0200 C   0  0  2  0  0  0  0  0  0  0  0  0
   -1.9870   -1.9850   -0.9480 O   0  0  0  0  0  0  0  0  0  0  0  0
   -2.2860    0.1610    0.0950 C   0  0  0  0  0  0  0  0  0  0  0  0
   -3.7530   -0.0590    0.3930 C   0  0  0  0  0  0  0  0  0  0  0  0
   -4.3390    1.2230    0.4340 O   0  0  0  0  0  0  0  0  0  0  0  0
  1  2  2  0
  2  3  1  0
  2 10  1  0
  3  4  1  0
  4  5  2  0
  4  8  1  0
  5  6  1  0
  6  7  1  0
  7  8  2  0
  8  9  1  0
 10 11  1  6
 10 12  1  0
 12 13  1  0
 13 14  1  0
M  END
