
     RDKit          3D

 14 14  0  0  0  0  0  0  0  0999 V2000
   -5.1140    0.2200    0.7410 N   0  0  0  0  0  0  0  0  0  0  0  0
   -3.7500   -0.1920    0.5200 C   0  0  0  0  0  0  0  0  0  0  0  0
   -3.5270   -1.4160    0.3620 O   0  0  0  0  0  0  0  0  0  0  0  0
   -2.6390    0.7880    0.4800 C   0  0  0  0  0  0  0  0  0  0  0  0
   -1.3620    0.0480    0.2360 C   0  0  0  0  0  0  0  0  0  0  0  0
   -0.2360    0.8690    0.1780 O   0  0  0  0  0  0  0  0  0  0  0  0
    0.9990    0.3020   -0.0430 C   0  0  0  0  0  0  0  0  0  0  0  0
    1.4050   -0.8410    0.4710 C   0  0  0  0  0  0  0  0  0  0  0  0
    2.6920   -1.4910    0.2770 C   0  0  1  0  0  0  0  0  0  0  0  0
    2.3770   -2.7670   -0.2780 F   0  0  0  0  0  0  0  0  0  0  0  0
    3.6250   -0.7630   -0.5970 C   0  0  0  0  0  0  0  0  0  0  0  0
    3.1370    0.4930   -1.1440 C   0  0  0  0  0  0  0  0  0  0  0  0
    1.9530    0.9860   -0.9020 C   0  0  0  0  0  0  0  0  0  0  0  0
    1.6310    2.2110   -1.5060 O   0  0  0  0  0  0  0  0  0  0  0  0
  1  2  1  0
  2  3  2  0
  2  4  1  0
  4  5  1  0
  5  6  1  0
  6  7  1  0
  7  8  2  0
  7 13  1  0
  8  9  1  0
  9 10  1  6
  9 11  1  0
 11 12  1  0
 12 13  2  0
 13 14  1  0
M  END
