
     RDKit          3D

 14 14  0  0  0  0  0  0  0  0999 V2000
    4.3200   -0.0580   -0.4760 N   0  0  0  0  0  0  0  0  0  0  0  0
    2.8810   -0.1680   -0.6640 C   0  0  0  0  0  0  0  0  0  0  0  0
    2.0630    0.1840    0.2680 C   0  0  0  0  0  0  0  0  0  0  0  0
    0.6240    0.1660    0.3090 C   0  0  0  0  0  0  0  0  0  0  0  0
   -0.0580    0.6090    1.4580 C   0  0  0  0  0  0  0  0  0  0  0  0
    0.6280    1.0580    2.5400 O   0  0  0  0  0  0  0  0  0  0  0  0
   -1.4540    0.5710    1.4500 C   0  0  0  0  0  0  0  0  0  0  0  0
   -2.2050    0.1340    0.4040 C   0  0  0  0  0  0  0  0  0  0  0  0
   -3.6930    0.1100    0.4350 C   0  0  0  0  0  0  0  0  0  0  0  0
   -4.1530   -0.3850   -0.7740 F   0  0  0  0  0  0  0  0  0  0  0  0
   -1.5160   -0.2970   -0.7160 C   0  0  0  0  0  0  0  0  0  0  0  0
   -2.2420   -0.7490   -1.8020 O   0  0  0  0  0  0  0  0  0  0  0  0
   -0.1210   -0.2830   -0.7670 C   0  0  0  0  0  0  0  0  0  0  0  0
    0.5350   -0.7200   -1.9000 O   0  0  0  0  0  0  0  0  0  0  0  0
  1  2  1  0
  2  3  2  3
  3  4  1  0
  4  5  2  0
  4 13  1  0
  5  6  1  0
  5  7  1  0
  7  8  2  0
  8  9  1  0
  8 11  1  0
  9 10  1  0
 11 12  1  0
 11 13  2  0
 13 14  1  0
M  END
