
     RDKit          3D

 14 13  0  0  0  0  0  0  0  0999 V2000
   -3.2320    0.8470    0.2800 C   0  0  0  0  0  0  0  0  0  0  0  0
   -2.4700    0.7840    1.3320 C   0  0  0  0  0  0  0  0  0  0  0  0
   -2.8090    1.5720    2.4100 F   0  0  0  0  0  0  0  0  0  0  0  0
   -1.2960   -0.0800    1.3760 C   0  0  0  0  0  0  0  0  0  0  0  0
   -0.6150   -0.0630    2.4930 C   0  0  0  0  0  0  0  0  0  0  0  0
    0.5890   -0.8140    2.8310 C   0  0  0  0  0  0  0  0  0  0  0  0
   -1.0090   -0.8470    0.2360 N   0  0  0  0  0  0  0  0  0  0  0  0
   -0.4040   -0.4820   -0.9910 C   0  0  0  0  0  0  0  0  0  0  0  0
    1.0450   -0.1510   -1.0270 C   0  0  1  0  0  0  0  0  0  0  0  0
    1.8140   -1.1830   -0.5480 O   0  0  0  0  0  0  0  0  0  0  0  0
    1.3830   -0.1020   -2.5790 C   0  0  0  0  0  0  0  0  0  0  0  0
    1.0260   -1.2900   -3.1650 O   0  0  0  0  0  0  0  0  0  0  0  0
    1.4740    1.1910   -0.5710 C   0  0  0  0  0  0  0  0  0  0  0  0
    1.5010    1.4600    0.7560 O   0  0  0  0  0  0  0  0  0  0  0  0
  1  2  2  0
  2  3  1  0
  2  4  1  0
  4  5  2  3
  4  7  1  0
  5  6  1  0
  7  8  1  0
  8  9  1  0
  9 10  1  1
  9 11  1  0
  9 13  1  0
 11 12  1  0
 13 14  1  0
M  END
