
     RDKit          3D

 14 14  0  0  0  0  0  0  0  0999 V2000
    3.2470   -1.0710    0.3120 N   0  0  0  0  0  0  0  0  0  0  0  0
    1.9500   -0.6780   -0.2110 C   0  0  1  0  0  0  0  0  0  0  0  0
    0.9900   -0.7250    0.9440 C   0  0  0  0  0  0  0  0  0  0  0  0
   -0.3990   -0.3470    0.5870 C   0  0  0  0  0  0  0  0  0  0  0  0
   -1.3120   -1.3080    0.1380 C   0  0  0  0  0  0  0  0  0  0  0  0
   -2.6050   -0.9640   -0.1910 C   0  0  0  0  0  0  0  0  0  0  0  0
   -3.0490    0.3380   -0.0910 C   0  0  0  0  0  0  0  0  0  0  0  0
   -4.3680    0.6480   -0.4330 O   0  0  0  0  0  0  0  0  0  0  0  0
   -2.1670    1.3010    0.3500 C   0  0  0  0  0  0  0  0  0  0  0  0
   -2.5780    2.5900    0.4580 F   0  0  0  0  0  0  0  0  0  0  0  0
   -0.8660    0.9420    0.6780 C   0  0  0  0  0  0  0  0  0  0  0  0
    2.0630    0.6760   -0.7860 C   0  0  0  0  0  0  0  0  0  0  0  0
    1.0930    1.2640   -1.3490 O   0  0  0  0  0  0  0  0  0  0  0  0
    3.2630    1.3510   -0.7230 O   0  0  0  0  0  0  0  0  0  0  0  0
  2  1  1  1
  2  3  1  0
  2 12  1  0
  3  4  1  0
  4  5  2  0
  4 11  1  0
  5  6  1  0
  6  7  2  0
  7  8  1  0
  7  9  1  0
  9 10  1  0
  9 11  2  0
 12 13  2  0
 12 14  1  0
M  END
