
     RDKit          3D

 13 13  0  0  0  0  0  0  0  0999 V2000
    1.0060    1.9740   -2.9440 N   0  0  0  0  0  0  0  0  0  0  0  0
    1.5650    1.7030   -1.6800 C   0  0  0  0  0  0  0  0  0  0  0  0
    0.9330    0.7080   -0.8200 C   0  0  0  0  0  0  0  0  0  0  0  0
   -0.1180   -0.0290   -0.9950 C   0  0  0  0  0  0  0  0  0  0  0  0
   -0.9570   -0.0110   -2.1930 C   0  0  0  0  0  0  0  0  0  0  0  0
   -0.9950   -1.2710   -2.8250 O   0  0  0  0  0  0  0  0  0  0  0  0
   -0.4830   -0.9440    0.1020 C   0  0  0  0  0  0  0  0  0  0  0  0
   -1.5410   -1.7140   -0.0080 C   0  0  0  0  0  0  0  0  0  0  0  0
   -1.9210   -2.5940    1.0030 O   0  0  0  0  0  0  0  0  0  0  0  0
    0.2800   -1.0170    1.2780 O   0  0  0  0  0  0  0  0  0  0  0  0
   -0.2550   -0.5830    2.4990 C   0  0  1  0  0  0  0  0  0  0  0  0
    0.5540   -0.6650    3.7270 C   0  0  0  0  0  0  0  0  0  0  0  0
    0.4170    0.6860    3.0510 C   0  0  0  0  0  0  0  0  0  0  0  0
  1  2  1  0
  2  3  1  0
  3  4  2  3
  4  5  1  0
  4  7  1  0
  5  6  1  0
  7  8  2  3
  7 10  1  0
  8  9  1  0
 11 10  1  6
 11 12  1  0
 11 13  1  0
 12 13  1  0
M  END
