
     RDKit          3D

 10  9  0  0  0  0  0  0  0  0999 V2000
    2.2730   -0.2450    1.1280 O   0  0  0  0  0  0  0  0  0  0  0  0
    1.6150   -0.0470   -0.0900 C   0  0  2  0  0  0  0  0  0  0  0  0
    2.3150    0.8110   -0.9180 F   0  0  0  0  0  0  0  0  0  0  0  0
    0.3770    0.5270    0.1420 O   0  0  0  0  0  0  0  0  0  0  0  0
   -0.6110   -0.2980   -0.3410 C   0  0  1  0  0  0  0  0  0  0  0  0
   -0.4450   -0.4880   -1.7050 F   0  0  0  0  0  0  0  0  0  0  0  0
   -0.6000   -1.5230    0.3250 F   0  0  0  0  0  0  0  0  0  0  0  0
   -1.9870    0.3120   -0.1450 C   0  0  2  0  0  0  0  0  0  0  0  0
   -2.9330   -0.5660   -0.6510 F   0  0  0  0  0  0  0  0  0  0  0  0
   -2.0710    1.5300   -0.7880 F   0  0  0  0  0  0  0  0  0  0  0  0
  2  1  1  1
  2  3  1  0
  2  4  1  0
  4  5  1  0
  5  6  1  6
  5  7  1  0
  5  8  1  0
  8  9  1  6
  8 10  1  0
M  END
