
     RDKit          3D

 10  9  0  0  0  0  0  0  0  0999 V2000
   -0.9450    0.4110    1.5870 O   0  0  0  0  0  0  0  0  0  0  0  0
   -0.4320    0.1690    0.3190 C   0  0  1  0  0  0  0  0  0  0  0  0
    0.6520   -0.6620    0.3000 O   0  0  0  0  0  0  0  0  0  0  0  0
    1.7930   -0.1070   -0.2410 C   0  0  2  0  0  0  0  0  0  0  0  0
    2.8110   -1.0340   -0.2050 F   0  0  0  0  0  0  0  0  0  0  0  0
    2.1780    0.9580    0.5540 F   0  0  0  0  0  0  0  0  0  0  0  0
    1.6510    0.3470   -1.5110 F   0  0  0  0  0  0  0  0  0  0  0  0
   -1.5230   -0.4510   -0.5290 C   0  0  1  0  0  0  0  0  0  0  0  0
   -1.8980   -1.6290    0.0890 F   0  0  0  0  0  0  0  0  0  0  0  0
   -2.5750    0.4140   -0.7050 F   0  0  0  0  0  0  0  0  0  0  0  0
  2  1  1  1
  2  3  1  0
  2  8  1  0
  3  4  1  0
  4  5  1  6
  4  6  1  0
  4  7  1  0
  8  9  1  1
  8 10  1  0
M  END
