
     RDKit          3D

 10  9  0  0  0  0  0  0  0  0999 V2000
   -1.4170   -1.4560   -0.2250 O   0  0  0  0  0  0  0  0  0  0  0  0
   -0.4010   -0.5560    0.1830 C   0  0  1  0  0  0  0  0  0  0  0  0
   -0.0060   -0.8430    1.4540 F   0  0  0  0  0  0  0  0  0  0  0  0
    0.5690   -0.6290   -0.7690 O   0  0  0  0  0  0  0  0  0  0  0  0
    1.6750    0.1500   -0.6140 C   0  0  0  0  0  0  0  0  0  0  0  0
    2.2890   -0.2020    0.5900 F   0  0  0  0  0  0  0  0  0  0  0  0
   -1.0840    0.8020    0.2070 C   0  0  1  0  0  0  0  0  0  0  0  0
   -2.1530    0.7880    1.1050 F   0  0  0  0  0  0  0  0  0  0  0  0
   -0.2430    1.8010    0.6410 F   0  0  0  0  0  0  0  0  0  0  0  0
   -1.5890    1.1630   -1.0150 F   0  0  0  0  0  0  0  0  0  0  0  0
  2  1  1  6
  2  3  1  0
  2  4  1  0
  2  7  1  0
  4  5  1  0
  5  6  1  0
  7  8  1  1
  7  9  1  0
  7 10  1  0
M  END
