
     RDKit          3D

 11 10  0  0  0  0  0  0  0  0999 V2000
    0.7680   -1.5480    0.6130 O   0  0  0  0  0  0  0  0  0  0  0  0
    0.4090   -0.3600   -0.0610 C   0  0  1  0  0  0  0  0  0  0  0  0
   -0.5750    0.2520    0.6770 O   0  0  0  0  0  0  0  0  0  0  0  0
   -1.7790    0.3960    0.0200 C   0  0  2  0  0  0  0  0  0  0  0  0
   -2.6500    1.0290    0.9100 F   0  0  0  0  0  0  0  0  0  0  0  0
   -2.3680   -0.8350   -0.2620 F   0  0  0  0  0  0  0  0  0  0  0  0
   -1.7260    1.1340   -1.1180 F   0  0  0  0  0  0  0  0  0  0  0  0
    1.6470    0.5130   -0.0450 C   0  0  2  0  0  0  0  0  0  0  0  0
    2.7100   -0.0930   -0.6820 F   0  0  0  0  0  0  0  0  0  0  0  0
    1.9740    0.6890    1.3060 F   0  0  0  0  0  0  0  0  0  0  0  0
    1.3180    1.7300   -0.5720 F   0  0  0  0  0  0  0  0  0  0  0  0
  2  1  1  1
  2  3  1  0
  2  8  1  0
  3  4  1  0
  4  5  1  1
  4  6  1  0
  4  7  1  0
  8  9  1  6
  8 10  1  0
  8 11  1  0
M  END
