
     RDKit          3D

 10  9  0  0  0  0  0  0  0  0999 V2000
   -1.0550    1.5440    0.1150 O   0  0  0  0  0  0  0  0  0  0  0  0
   -0.4050    0.3140    0.1970 C   0  0  2  0  0  0  0  0  0  0  0  0
    0.6020    0.3100   -0.7550 O   0  0  0  0  0  0  0  0  0  0  0  0
    1.8410   -0.0060   -0.1970 C   0  0  1  0  0  0  0  0  0  0  0  0
    2.2760   -1.1750   -0.7790 F   0  0  0  0  0  0  0  0  0  0  0  0
    2.7670    1.0150   -0.3830 F   0  0  0  0  0  0  0  0  0  0  0  0
   -1.4300   -0.7440   -0.2350 C   0  0  2  0  0  0  0  0  0  0  0  0
   -1.8450   -0.4900   -1.5270 F   0  0  0  0  0  0  0  0  0  0  0  0
   -2.4990   -0.6410    0.6590 F   0  0  0  0  0  0  0  0  0  0  0  0
   -0.8710   -1.9950   -0.2010 F   0  0  0  0  0  0  0  0  0  0  0  0
  2  1  1  6
  2  3  1  0
  2  7  1  0
  3  4  1  0
  4  5  1  6
  4  6  1  0
  7  8  1  6
  7  9  1  0
  7 10  1  0
M  END
