
     RDKit          3D

 11 10  0  0  0  0  0  0  0  0999 V2000
   -2.4520    1.2990   -0.5200 F   0  0  0  0  0  0  0  0  0  0  0  0
   -1.9750    0.1930    0.1640 C   0  0  1  0  0  0  0  0  0  0  0  0
   -3.0480   -0.5630    0.6330 F   0  0  0  0  0  0  0  0  0  0  0  0
   -1.2090   -0.6350   -0.6270 O   0  0  0  0  0  0  0  0  0  0  0  0
    0.0420   -0.7970   -0.0700 C   0  0  1  0  0  0  0  0  0  0  0  0
    0.2420   -2.1360    0.2640 F   0  0  0  0  0  0  0  0  0  0  0  0
    1.0700   -0.4560   -0.9420 O   0  0  0  0  0  0  0  0  0  0  0  0
    1.9250    0.4870   -0.3620 C   0  0  2  0  0  0  0  0  0  0  0  0
    1.2940    1.6450   -0.0240 F   0  0  0  0  0  0  0  0  0  0  0  0
    2.9360    0.7740   -1.2460 F   0  0  0  0  0  0  0  0  0  0  0  0
    2.4080   -0.0970    0.8020 F   0  0  0  0  0  0  0  0  0  0  0  0
  2  1  1  6
  2  3  1  0
  2  4  1  0
  4  5  1  0
  5  6  1  6
  5  7  1  0
  7  8  1  0
  8  9  1  1
  8 10  1  0
  8 11  1  0
M  END
