
     RDKit          3D

 26 27  0  0  0  0  0  0  0  0999 V2000
    7.8740    2.5700    1.7670 C   0  0  0  0  0  0  0  0  0  0  0  0
    6.5190    2.1160    1.6710 O   0  0  0  0  0  0  0  0  0  0  0  0
    6.0820    1.3500    0.6060 C   0  0  0  0  0  0  0  0  0  0  0  0
    6.9290    1.0600   -0.2920 O   0  0  0  0  0  0  0  0  0  0  0  0
    4.8010    0.8810    0.4480 O   0  0  0  0  0  0  0  0  0  0  0  0
    4.4630    0.1070   -0.6780 C   0  0  1  0  0  0  0  0  0  0  0  0
    3.8130   -1.2090   -0.2760 C   0  0  0  0  0  0  0  0  0  0  0  0
    2.3870   -0.7360    0.0310 C   0  0  0  0  0  0  0  0  0  0  0  0
    2.1180    0.0940   -1.1250 N   0  0  0  0  0  0  0  0  0  0  0  0
    0.8750    0.1960   -1.8110 C   0  0  0  0  0  0  0  0  0  0  0  0
    0.8040    0.9660   -2.8040 O   0  0  0  0  0  0  0  0  0  0  0  0
   -0.2750   -0.5330   -1.4190 N   0  0  0  0  0  0  0  0  0  0  0  0
   -1.5500   -0.4170   -2.1360 C   0  0  0  0  0  0  0  0  0  0  0  0
   -2.5360   -1.3020   -1.4760 C   0  0  0  0  0  0  0  0  0  0  0  0
   -2.7790   -2.5750   -1.7590 N   0  0  0  0  0  0  0  0  0  0  0  0
   -3.7130   -2.9720   -0.9470 O   0  0  0  0  0  0  0  0  0  0  0  0
   -4.0800   -1.9890   -0.1460 C   0  0  0  0  0  0  0  0  0  0  0  0
   -5.0770   -2.0350    0.8800 N   0  0  0  0  0  0  0  0  0  0  0  0
   -5.3570   -0.8550    1.6700 C   0  0  0  0  0  0  0  0  0  0  0  0
   -5.8410    0.2870    0.7830 C   0  0  0  0  0  0  0  0  0  0  0  0
   -7.0070   -0.1120    0.1290 O   0  0  0  0  0  0  0  0  0  0  0  0
   -7.4440    0.8430   -0.6360 O   0  0  0  0  0  0  0  0  0  0  0  0
   -7.5510    1.9600    0.0180 O   0  0  0  0  0  0  0  0  0  0  0  0
   -3.3370   -0.9340   -0.4790 N   0  0  0  0  0  0  0  0  0  0  0  0
    3.3330    0.7670   -1.4190 C   0  0  0  0  0  0  0  0  0  0  0  0
    3.4030    1.7630   -2.1920 O   0  0  0  0  0  0  0  0  0  0  0  0
  1  2  1  0
  2  3  1  0
  3  4  2  0
  3  5  1  0
  6  5  1  1
  6  7  1  0
  6 25  1  0
  7  8  1  0
  8  9  1  0
  9 10  1  0
  9 25  1  0
 10 11  2  0
 10 12  1  0
 12 13  1  0
 13 14  1  0
 14 15  2  0
 14 24  1  0
 15 16  1  0
 16 17  1  0
 17 18  1  0
 17 24  2  0
 18 19  1  0
 19 20  1  0
 20 21  1  0
 21 22  1  0
 22 23  1  0
 25 26  2  0
M  END
