
     RDKit          3D

 26 27  0  0  0  0  0  0  0  0999 V2000
    4.8590   -0.8870    1.0240 O   0  0  0  0  0  0  0  0  0  0  0  0
    4.7450   -0.4010   -0.1140 C   0  0  0  0  0  0  0  0  0  0  0  0
    5.7440    0.4520   -0.6390 N   0  0  0  0  0  0  0  0  0  0  0  0
    6.9120    0.8330    0.0100 C   0  0  0  0  0  0  0  0  0  0  0  0
    7.2800    0.4710    1.2030 C   0  0  0  0  0  0  0  0  0  0  0  0
    8.5110    0.9410    1.7500 O   0  0  0  0  0  0  0  0  0  0  0  0
    3.5970   -0.7310   -0.8440 O   0  0  0  0  0  0  0  0  0  0  0  0
    2.6770   -1.5560   -0.2790 O   0  0  0  0  0  0  0  0  0  0  0  0
    1.3800   -1.1170    0.0000 C   0  0  0  0  0  0  0  0  0  0  0  0
    1.0810   -0.6690    1.2200 N   0  0  0  0  0  0  0  0  0  0  0  0
   -0.1490   -0.2580    1.4640 C   0  0  0  0  0  0  0  0  0  0  0  0
   -1.1790   -0.2600    0.5090 C   0  0  0  0  0  0  0  0  0  0  0  0
   -0.8580   -0.7270   -0.7490 C   0  0  0  0  0  0  0  0  0  0  0  0
    0.4420   -1.1380   -0.9310 N   0  0  0  0  0  0  0  0  0  0  0  0
   -1.7760   -0.8280   -1.9150 C   0  0  0  0  0  0  0  0  0  0  0  0
   -1.2770   -0.2550   -2.9660 O   0  0  0  0  0  0  0  0  0  0  0  0
   -3.0210   -1.4070   -2.0590 N   0  0  0  0  0  0  0  0  0  0  0  0
   -4.1950   -1.6870   -1.3690 C   0  0  0  0  0  0  0  0  0  0  0  0
   -4.4300   -3.0770   -1.2310 O   0  0  0  0  0  0  0  0  0  0  0  0
   -5.1180   -1.0070   -0.8270 N   0  0  0  0  0  0  0  0  0  0  0  0
   -5.3060    0.3610   -0.7180 O   0  0  0  0  0  0  0  0  0  0  0  0
   -6.0820    0.8660    0.2800 O   0  0  0  0  0  0  0  0  0  0  0  0
   -5.2780    1.4700    1.1730 O   0  0  0  0  0  0  0  0  0  0  0  0
   -4.2120    2.1020    0.6320 C   0  0  0  0  0  0  0  0  0  0  0  0
   -3.0160    1.4050    0.1910 C   0  0  0  0  0  0  0  0  0  0  0  0
   -2.4930    0.2550    0.9570 C   0  0  0  0  0  0  0  0  0  0  0  0
  1  2  2  0
  2  3  1  0
  2  7  1  0
  3  4  1  0
  4  5  2  3
  5  6  1  0
  7  8  1  0
  8  9  1  0
  9 10  2  0
  9 14  1  0
 10 11  1  0
 11 12  2  0
 12 13  1  0
 12 26  1  0
 13 14  2  0
 13 15  1  0
 15 16  2  0
 15 17  1  0
 17 18  1  0
 18 19  1  0
 18 20  2  0
 20 21  1  0
 21 22  1  0
 22 23  1  0
 23 24  1  0
 24 25  1  0
 25 26  1  0
M  END
