
     RDKit          3D

 26 28  0  0  0  0  0  0  0  0999 V2000
    4.0020    1.0630   -2.2370 O   0  0  0  0  0  0  0  0  0  0  0  0
    4.2260   -0.1170   -2.6730 C   0  0  0  0  0  0  0  0  0  0  0  0
    5.0500   -0.3290   -3.7760 O   0  0  0  0  0  0  0  0  0  0  0  0
    3.6160   -1.2250   -2.0120 N   0  0  0  0  0  0  0  0  0  0  0  0
    2.7760   -1.0320   -0.8870 C   0  0  0  0  0  0  0  0  0  0  0  0
    2.1860   -2.0490   -0.2440 N   0  0  0  0  0  0  0  0  0  0  0  0
    1.3920   -1.8690    0.8160 C   0  0  0  0  0  0  0  0  0  0  0  0
    1.1430   -0.5600    1.3070 C   0  0  0  0  0  0  0  0  0  0  0  0
    0.3290   -0.4770    2.4980 C   0  0  0  0  0  0  0  0  0  0  0  0
    0.3560   -1.4820    3.4740 N   0  0  0  0  0  0  0  0  0  0  0  0
   -0.5070   -1.2200    4.4150 N   0  0  0  0  0  0  0  0  0  0  0  0
   -1.1290   -0.0770    4.1290 C   0  0  0  0  0  0  0  0  0  0  0  0
   -0.5940    0.3720    2.9250 N   0  0  0  0  0  0  0  0  0  0  0  0
   -1.1080    1.5750    2.3100 C   0  0  0  0  0  0  0  0  0  0  0  0
   -2.2570    1.1900    1.4440 C   0  0  0  0  0  0  0  0  0  0  0  0
   -3.4050    1.1980    1.9190 O   0  0  0  0  0  0  0  0  0  0  0  0
   -2.0340    0.8360    0.1510 O   0  0  0  0  0  0  0  0  0  0  0  0
   -3.0360    0.4540   -0.7690 C   0  0  1  0  0  0  0  0  0  0  0  0
   -2.8670    1.1240   -2.1070 C   0  0  0  0  0  0  0  0  0  0  0  0
   -3.3270    0.1190   -2.9810 O   0  0  0  0  0  0  0  0  0  0  0  0
   -2.8130   -1.0200   -2.5110 O   0  0  0  0  0  0  0  0  0  0  0  0
   -2.7080   -0.9740   -1.1290 C   0  0  0  0  0  0  0  0  0  0  0  0
   -2.4070   -1.9030   -0.3250 O   0  0  0  0  0  0  0  0  0  0  0  0
    1.7680    0.4130    0.6170 C   0  0  0  0  0  0  0  0  0  0  0  0
    1.6690    1.6110    0.9150 O   0  0  0  0  0  0  0  0  0  0  0  0
    2.5550    0.1750   -0.4430 O   0  0  0  0  0  0  0  0  0  0  0  0
  1  2  2  0
  2  3  1  0
  2  4  1  0
  4  5  1  0
  5  6  2  0
  5 26  1  0
  6  7  1  0
  7  8  2  0
  8  9  1  0
  8 24  1  0
  9 10  2  0
  9 13  1  0
 10 11  1  0
 11 12  2  0
 12 13  1  0
 13 14  1  0
 14 15  1  0
 15 16  2  0
 15 17  1  0
 18 17  1  1
 18 19  1  0
 18 22  1  0
 19 20  1  0
 20 21  1  0
 21 22  1  0
 22 23  2  0
 24 25  2  0
 24 26  1  0
M  END
