
     RDKit          3D

 13 13  0  0  0  0  0  0  0  0999 V2000
    3.4470    0.2050   -1.2990 O   0  0  0  0  0  0  0  0  0  0  0  0
    2.1040   -0.6120   -0.5320 P   0  0  0  0  0  0  0  0  0  0  0  0
    0.9030    0.5940    0.0800 C   0  0  0  0  0  0  0  0  0  0  0  0
   -0.3970    0.3540    0.0740 C   0  0  0  0  0  0  0  0  0  0  0  0
   -1.0580   -0.8700   -0.4070 C   0  0  0  0  0  0  0  0  0  0  0  0
   -0.2920   -2.3210   -0.7150 P   0  0  0  0  0  0  0  0  0  0  0  0
   -2.5150   -0.5920   -0.5680 C   0  0  0  0  0  0  0  0  0  0  0  0
   -2.7120    0.5510    0.3320 N   0  0  0  0  0  0  0  0  0  0  0  0
   -1.4750    1.2170    0.5280 C   0  0  0  0  0  0  0  0  0  0  0  0
   -1.2950    2.4140    1.0280 C   0  0  0  0  0  0  0  0  0  0  0  0
   -1.1480    4.0420    1.3170 P   0  0  0  0  0  0  0  0  0  0  0  0
    2.7720   -1.7180    0.7650 C   0  0  0  0  0  0  0  0  0  0  0  0
    3.5220   -3.1400   -0.0390 Cl  0  0  0  0  0  0  0  0  0  0  0  0
  1  2  1  0
  2  3  1  0
  2 12  1  0
  3  4  2  3
  4  5  1  0
  4  9  1  0
  5  6  2  0
  5  7  1  0
  7  8  1  0
  8  9  1  0
  9 10  2  0
 10 11  2  0
 12 13  1  0
M  END
