
     RDKit          3D

 26 27  0  0  0  0  0  0  0  0999 V2000
    2.9370   -2.3520   -0.9700 C   0  0  0  0  0  0  0  0  0  0  0  0
    2.5780   -1.5500    0.1960 N   0  0  0  0  0  0  0  0  0  0  0  0
    3.0860   -1.9120    1.5010 C   0  0  0  0  0  0  0  0  0  0  0  0
    4.3000   -1.3120    1.8080 O   0  0  0  0  0  0  0  0  0  0  0  0
    4.1790   -0.0200    1.7930 O   0  0  0  0  0  0  0  0  0  0  0  0
    5.3330    0.5810    1.9240 O   0  0  0  0  0  0  0  0  0  0  0  0
    1.7330   -0.4290    0.0160 C   0  0  0  0  0  0  0  0  0  0  0  0
    1.4290    0.2570    1.0130 O   0  0  0  0  0  0  0  0  0  0  0  0
    1.2020   -0.0460   -1.3070 C   0  0  0  0  0  0  0  0  0  0  0  0
    0.3610    1.1490   -1.1990 C   0  0  0  0  0  0  0  0  0  0  0  0
    0.7210    2.2060   -1.9070 C   0  0  0  0  0  0  0  0  0  0  0  0
    0.1790    3.5720   -2.0880 C   0  0  0  0  0  0  0  0  0  0  0  0
    0.8770    3.6040   -3.2860 O   0  0  0  0  0  0  0  0  0  0  0  0
    1.6720    2.6470   -2.7830 O   0  0  0  0  0  0  0  0  0  0  0  0
   -0.8290    1.2320   -0.3640 C   0  0  0  0  0  0  0  0  0  0  0  0
   -1.1130    2.4040    0.2810 N   0  0  0  0  0  0  0  0  0  0  0  0
   -2.1910    2.5460    1.0650 C   0  0  0  0  0  0  0  0  0  0  0  0
   -3.0190    1.4540    1.2020 C   0  0  0  0  0  0  0  0  0  0  0  0
   -2.7490    0.2900    0.5690 N   0  0  0  0  0  0  0  0  0  0  0  0
   -3.5770   -0.8440    0.6890 C   0  0  0  0  0  0  0  0  0  0  0  0
   -3.4490   -1.6360    1.6770 N   0  0  0  0  0  0  0  0  0  0  0  0
   -4.5540   -1.1000   -0.2940 N   0  0  0  0  0  0  0  0  0  0  0  0
   -5.5360   -2.0210   -0.0560 O   0  0  0  0  0  0  0  0  0  0  0  0
   -5.1420   -2.7820    0.9530 O   0  0  0  0  0  0  0  0  0  0  0  0
   -1.6600    0.1510   -0.2200 C   0  0  0  0  0  0  0  0  0  0  0  0
   -1.3740   -0.9120   -0.8240 O   0  0  0  0  0  0  0  0  0  0  0  0
  1  2  1  0
  2  3  1  0
  2  7  1  0
  3  4  1  0
  4  5  1  0
  5  6  1  0
  7  8  2  0
  7  9  1  0
  9 10  1  0
 10 11  2  3
 10 15  1  0
 11 12  1  0
 11 14  1  0
 12 13  1  0
 13 14  1  0
 15 16  2  0
 15 25  1  0
 16 17  1  0
 17 18  2  0
 18 19  1  0
 19 20  1  0
 19 25  1  0
 20 21  2  0
 20 22  1  0
 22 23  1  0
 23 24  1  0
 25 26  2  0
M  END
