
     RDKit          3D

 26 27  0  0  0  0  0  0  0  0999 V2000
   -9.0660   -0.1990    0.7070 C   0  0  0  0  0  0  0  0  0  0  0  0
   -7.8000    0.3460    0.3510 O   0  0  0  0  0  0  0  0  0  0  0  0
   -6.7650   -0.4030   -0.1680 C   0  0  0  0  0  0  0  0  0  0  0  0
   -6.9690   -1.6420   -0.3300 O   0  0  0  0  0  0  0  0  0  0  0  0
   -5.5380    0.0990   -0.5180 O   0  0  0  0  0  0  0  0  0  0  0  0
   -4.4850   -0.6970   -1.0520 C   0  0  1  0  0  0  0  0  0  0  0  0
   -4.1340   -0.1160   -2.3960 C   0  0  0  0  0  0  0  0  0  0  0  0
   -2.6230   -0.2030   -2.4520 C   0  0  0  0  0  0  0  0  0  0  0  0
   -2.1920   -0.0640   -1.0490 N   0  0  0  0  0  0  0  0  0  0  0  0
   -0.9190    0.4430   -0.6740 C   0  0  0  0  0  0  0  0  0  0  0  0
   -0.0890    0.8030   -1.5740 O   0  0  0  0  0  0  0  0  0  0  0  0
   -0.4900    0.5810    0.6560 N   0  0  0  0  0  0  0  0  0  0  0  0
    0.8320    1.1100    0.9510 C   0  0  0  0  0  0  0  0  0  0  0  0
    1.8540    0.0670    0.6860 C   0  0  0  0  0  0  0  0  0  0  0  0
    1.6140   -1.1980    0.2980 N   0  0  0  0  0  0  0  0  0  0  0  0
    2.7410   -1.8170    0.1620 O   0  0  0  0  0  0  0  0  0  0  0  0
    3.7570   -1.0260    0.4410 C   0  0  0  0  0  0  0  0  0  0  0  0
    5.1380   -1.3450    0.4050 N   0  0  0  0  0  0  0  0  0  0  0  0
    6.0900   -0.3130    0.7520 C   0  0  0  0  0  0  0  0  0  0  0  0
    7.5150   -0.8110    0.6600 C   0  0  0  0  0  0  0  0  0  0  0  0
    8.3620    0.2370    1.0070 O   0  0  0  0  0  0  0  0  0  0  0  0
    9.6280   -0.1160    0.9500 O   0  0  0  0  0  0  0  0  0  0  0  0
   10.2710    0.4450    1.9280 O   0  0  0  0  0  0  0  0  0  0  0  0
    3.1890    0.1640    0.7720 N   0  0  0  0  0  0  0  0  0  0  0  0
   -3.2620   -0.5200   -0.2300 C   0  0  0  0  0  0  0  0  0  0  0  0
   -3.1410   -0.7290    1.0120 O   0  0  0  0  0  0  0  0  0  0  0  0
  1  2  1  0
  2  3  1  0
  3  4  2  0
  3  5  1  0
  6  5  1  1
  6  7  1  0
  6 25  1  0
  7  8  1  0
  8  9  1  0
  9 10  1  0
  9 25  1  0
 10 11  2  0
 10 12  1  0
 12 13  1  0
 13 14  1  0
 14 15  2  0
 14 24  1  0
 15 16  1  0
 16 17  1  0
 17 18  1  0
 17 24  2  0
 18 19  1  0
 19 20  1  0
 20 21  1  0
 21 22  1  0
 22 23  1  0
 25 26  2  0
M  END
