
     RDKit          3D

 26 27  0  0  0  0  0  0  0  0999 V2000
    3.9530    1.1620   -0.1380 O   0  0  0  0  0  0  0  0  0  0  0  0
    4.4430    0.8330    0.9880 C   0  0  0  0  0  0  0  0  0  0  0  0
    5.7600    0.3180    1.0300 N   0  0  0  0  0  0  0  0  0  0  0  0
    6.4920    0.1840   -0.1940 C   0  0  0  0  0  0  0  0  0  0  0  0
    6.9420   -0.9690   -0.6270 C   0  0  0  0  0  0  0  0  0  0  0  0
    6.7140   -2.1100    0.1040 O   0  0  0  0  0  0  0  0  0  0  0  0
    3.6560    1.0000    2.1170 O   0  0  0  0  0  0  0  0  0  0  0  0
    2.4080    1.4840    2.1150 O   0  0  0  0  0  0  0  0  0  0  0  0
    1.3590    0.8330    1.4160 C   0  0  0  0  0  0  0  0  0  0  0  0
    1.6030   -0.2910    0.7360 N   0  0  0  0  0  0  0  0  0  0  0  0
    0.5880   -0.8650    0.0960 C   0  0  0  0  0  0  0  0  0  0  0  0
   -0.7500   -0.3400    0.0980 C   0  0  0  0  0  0  0  0  0  0  0  0
   -0.9870    0.8070    0.7950 C   0  0  0  0  0  0  0  0  0  0  0  0
    0.1620    1.2970    1.4140 N   0  0  0  0  0  0  0  0  0  0  0  0
   -2.1360    1.6520    1.0350 C   0  0  0  0  0  0  0  0  0  0  0  0
   -2.0510    2.9100    0.6060 O   0  0  0  0  0  0  0  0  0  0  0  0
   -3.4090    1.5020    1.6420 N   0  0  0  0  0  0  0  0  0  0  0  0
   -4.4610    0.6070    1.4210 C   0  0  0  0  0  0  0  0  0  0  0  0
   -4.7970   -0.3400    2.3990 O   0  0  0  0  0  0  0  0  0  0  0  0
   -5.2390    0.5090    0.3690 N   0  0  0  0  0  0  0  0  0  0  0  0
   -5.2000    1.2510   -0.7420 O   0  0  0  0  0  0  0  0  0  0  0  0
   -5.6360    0.6700   -1.8910 O   0  0  0  0  0  0  0  0  0  0  0  0
   -4.8260   -0.3250   -2.1790 O   0  0  0  0  0  0  0  0  0  0  0  0
   -3.5040   -0.0160   -1.7650 C   0  0  0  0  0  0  0  0  0  0  0  0
   -2.9480   -1.1410   -0.9900 C   0  0  0  0  0  0  0  0  0  0  0  0
   -1.5410   -1.2310   -0.7220 C   0  0  0  0  0  0  0  0  0  0  0  0
  1  2  2  0
  2  3  1  0
  2  7  1  0
  3  4  1  0
  4  5  2  3
  5  6  1  0
  7  8  1  0
  8  9  1  0
  9 10  2  0
  9 14  1  0
 10 11  1  0
 11 12  2  0
 12 13  1  0
 12 26  1  0
 13 14  2  0
 13 15  1  0
 15 16  2  0
 15 17  1  0
 17 18  1  0
 18 19  1  0
 18 20  2  0
 20 21  1  0
 21 22  1  0
 22 23  1  0
 23 24  1  0
 24 25  1  0
 25 26  1  0
M  END
