
     RDKit          3D

 10  9  0  0  0  0  0  0  0  0999 V2000
   -0.1910   -0.3030    2.1160 O   0  0  0  0  0  0  0  0  0  0  0  0
   -0.1650   -0.2370    0.8640 C   0  0  0  0  0  0  0  0  0  0  0  0
   -1.4120   -0.1180    0.1050 C   0  0  0  0  0  0  0  0  0  0  0  0
   -2.4840   -0.0970    0.9910 O   0  0  0  0  0  0  0  0  0  0  0  0
   -3.6410    0.0170    0.2170 C   0  0  0  0  0  0  0  0  0  0  0  0
   -3.5650    1.2050   -0.5180 O   0  0  0  0  0  0  0  0  0  0  0  0
    1.0340   -0.2780    0.2040 O   0  0  0  0  0  0  0  0  0  0  0  0
    2.2550   -0.3930    0.9210 C   0  0  0  0  0  0  0  0  0  0  0  0
    3.3640   -0.4070   -0.1290 C   0  0  0  0  0  0  0  0  0  0  0  0
    3.2590    0.8000   -0.8180 O   0  0  0  0  0  0  0  0  0  0  0  0
  1  2  2  0
  2  3  1  0
  2  7  1  0
  3  4  1  0
  4  5  1  0
  5  6  1  0
  7  8  1  0
  8  9  1  0
  9 10  1  0
M  END
