
     RDKit          3D

 23 23  0  0  0  0  0  0  0  0999 V2000
   -2.8060    2.7140   -0.1610 C   0  0  0  0  0  0  0  0  0  0  0  0
   -3.0350    1.2250   -0.3680 C   0  0  2  0  0  0  0  0  0  0  0  0
   -1.8000    0.5370   -0.6900 N   0  0  0  0  0  0  0  0  0  0  0  0
   -1.8070   -0.7210    0.0120 C   0  0  1  0  0  0  0  0  0  0  0  0
   -0.9950   -1.7830   -0.6210 C   0  0  0  0  0  0  0  0  0  0  0  0
    0.4390   -1.5470   -0.8010 C   0  0  0  0  0  0  0  0  0  0  0  0
    1.2150   -1.3100    0.3690 N   0  0  0  0  0  0  0  0  0  0  0  0
    2.6290   -1.3830    0.1930 C   0  0  2  0  0  0  0  0  0  0  0  0
    3.2280   -0.3930   -0.7490 C   0  0  0  0  0  0  0  0  0  0  0  0
    2.9910    1.0110   -0.3300 C   0  0  0  0  0  0  0  0  0  0  0  0
    3.8490    1.7350    0.5050 C   0  0  0  0  0  0  0  0  0  0  0  0
    3.3420    2.9670    0.6820 N   0  0  0  0  0  0  0  0  0  0  0  0
    2.2020    3.0600   -0.0010 C   0  0  0  0  0  0  0  0  0  0  0  0
    1.9930    1.8620   -0.6180 N   0  0  0  0  0  0  0  0  0  0  0  0
    3.1130   -2.7620   -0.0740 C   0  0  0  0  0  0  0  0  0  0  0  0
    4.3300   -3.0080   -0.2670 O   0  0  0  0  0  0  0  0  0  0  0  0
    2.2420   -3.8410   -0.1210 O   0  0  0  0  0  0  0  0  0  0  0  0
   -1.5290   -0.5930    1.4560 C   0  0  0  0  0  0  0  0  0  0  0  0
   -1.2750    0.4790    2.0400 O   0  0  0  0  0  0  0  0  0  0  0  0
   -1.5510   -1.7530    2.2180 O   0  0  0  0  0  0  0  0  0  0  0  0
   -4.0310    1.0960   -1.4660 C   0  0  0  0  0  0  0  0  0  0  0  0
   -3.7120    0.4440   -2.4920 O   0  0  0  0  0  0  0  0  0  0  0  0
   -5.2880    1.6580   -1.4150 O   0  0  0  0  0  0  0  0  0  0  0  0
  2  1  1  6
  2  3  1  0
  2 21  1  0
  3  4  1  0
  4  5  1  6
  4 18  1  0
  5  6  1  0
  6  7  1  0
  7  8  1  0
  8  9  1  6
  8 15  1  0
  9 10  1  0
 10 11  2  0
 10 14  1  0
 11 12  1  0
 12 13  2  0
 13 14  1  0
 15 16  2  0
 15 17  1  0
 18 19  2  0
 18 20  1  0
 21 22  2  0
 21 23  1  0
M  CHG  2   3   1   7   1
M  END
