
     RDKit          3D

 10  9  0  0  0  0  0  0  0  0999 V2000
   -1.5630    1.5560    1.1710 C   0  0  0  0  0  0  0  0  0  0  0  0
   -1.1860    1.1820   -0.0720 O   0  0  0  0  0  0  0  0  0  0  0  0
   -0.4930    0.0300   -0.2550 C   0  0  1  0  0  0  0  0  0  0  0  0
   -1.4010   -1.0240   -0.9650 C   0  0  0  0  0  0  0  0  0  0  0  0
   -2.5000   -1.2640   -0.1720 O   0  0  0  0  0  0  0  0  0  0  0  0
    0.5410    0.2080   -1.1460 O   0  0  0  0  0  0  0  0  0  0  0  0
    1.7130   -0.3730   -0.7520 C   0  0  0  0  0  0  0  0  0  0  0  0
    2.2170    0.2190    0.4900 C   0  0  0  0  0  0  0  0  0  0  0  0
    1.6250    1.1680    1.0270 O   0  0  0  0  0  0  0  0  0  0  0  0
    3.3670   -0.2590    1.1040 O   0  0  0  0  0  0  0  0  0  0  0  0
  1  2  1  0
  2  3  1  0
  3  4  1  6
  3  6  1  0
  4  5  1  0
  6  7  1  0
  7  8  1  0
  8  9  2  0
  8 10  1  0
M  END
