
     RDKit          3D

 10  9  0  0  0  0  0  0  0  0999 V2000
   -3.1940   -0.1040   -0.3300 C   0  0  0  0  0  0  0  0  0  0  0  0
   -2.0140    0.6220   -0.2990 O   0  0  0  0  0  0  0  0  0  0  0  0
   -1.1790    0.0840    0.6480 C   0  0  2  0  0  0  0  0  0  0  0  0
   -0.8610    1.0530    1.6220 O   0  0  0  0  0  0  0  0  0  0  0  0
    0.1480   -0.3690    0.0430 C   0  0  0  0  0  0  0  0  0  0  0  0
    0.8050    0.8690   -0.5770 C   0  0  0  0  0  0  0  0  0  0  0  0
    2.0420    0.5690   -1.1690 O   0  0  0  0  0  0  0  0  0  0  0  0
    3.1030    0.0550   -0.4770 C   0  0  0  0  0  0  0  0  0  0  0  0
    2.9870   -0.1650    0.7520 O   0  0  0  0  0  0  0  0  0  0  0  0
    4.3320   -0.2480   -1.0520 O   0  0  0  0  0  0  0  0  0  0  0  0
  1  2  1  0
  2  3  1  0
  3  4  1  1
  3  5  1  0
  5  6  1  0
  6  7  1  0
  7  8  1  0
  8  9  2  0
  8 10  1  0
M  END
