
     RDKit          3D

 10  9  0  0  0  0  0  0  0  0999 V2000
    3.1970    0.6320    0.9710 C   0  0  0  0  0  0  0  0  0  0  0  0
    1.8020    0.4800    1.0280 O   0  0  0  0  0  0  0  0  0  0  0  0
    1.2580   -0.7870    0.8840 C   0  0  0  0  0  0  0  0  0  0  0  0
    2.0650   -1.7510    0.7050 O   0  0  0  0  0  0  0  0  0  0  0  0
   -0.1940   -1.0560    0.9250 C   0  0  0  0  0  0  0  0  0  0  0  0
   -0.8020   -0.3980   -0.3160 C   0  0  1  0  0  0  0  0  0  0  0  0
   -0.2180   -0.9440   -1.4360 O   0  0  0  0  0  0  0  0  0  0  0  0
   -2.1890   -0.5670   -0.3570 O   0  0  0  0  0  0  0  0  0  0  0  0
   -2.8500    0.6410   -0.2410 C   0  0  0  0  0  0  0  0  0  0  0  0
   -2.5050    1.5050   -1.2650 O   0  0  0  0  0  0  0  0  0  0  0  0
  1  2  1  0
  2  3  1  0
  3  4  2  0
  3  5  1  0
  5  6  1  0
  6  7  1  6
  6  8  1  0
  8  9  1  0
  9 10  1  0
M  END
