
     RDKit          3D

 10  9  0  0  0  0  0  0  0  0999 V2000
   -0.5370   -1.0570    0.5140 O   0  0  0  0  0  0  0  0  0  0  0  0
   -0.3520   -0.0910   -0.2550 C   0  0  0  0  0  0  0  0  0  0  0  0
   -1.4960    0.4620   -1.0040 C   0  0  0  0  0  0  0  0  0  0  0  0
   -2.6810   -0.1340   -0.6650 O   0  0  0  0  0  0  0  0  0  0  0  0
   -3.1060    0.0570    0.6230 C   0  0  0  0  0  0  0  0  0  0  0  0
   -4.3270   -0.6040    0.8430 O   0  0  0  0  0  0  0  0  0  0  0  0
    0.9410    0.4150   -0.3620 O   0  0  0  0  0  0  0  0  0  0  0  0
    1.9630   -0.1850    0.3960 C   0  0  0  0  0  0  0  0  0  0  0  0
    3.3030    0.4500    0.1920 C   0  0  0  0  0  0  0  0  0  0  0  0
    4.2160   -0.2460    1.0050 O   0  0  0  0  0  0  0  0  0  0  0  0
  1  2  2  0
  2  3  1  0
  2  7  1  0
  3  4  1  0
  4  5  1  0
  5  6  1  0
  7  8  1  0
  8  9  1  0
  9 10  1  0
M  END
