
     RDKit          3D

 25 27  0  0  0  0  0  0  0  0999 V2000
    4.2750   -0.1180    3.0840 C   0  0  0  0  0  0  0  0  0  0  0  0
    4.1820    0.2970    1.6760 C   0  0  0  0  0  0  0  0  0  0  0  0
    5.2860    0.5880    0.9990 C   0  0  0  0  0  0  0  0  0  0  0  0
    5.5340    1.0220   -0.3750 C   0  0  0  0  0  0  0  0  0  0  0  0
    4.6950    0.2700   -1.3450 C   0  0  0  0  0  0  0  0  0  0  0  0
    5.1890   -0.1520   -2.5200 C   0  0  0  0  0  0  0  0  0  0  0  0
    4.1180   -0.8560   -3.2440 C   0  0  0  0  0  0  0  0  0  0  0  0
    2.9610   -0.7710   -2.3210 C   0  0  0  0  0  0  0  0  0  0  0  0
    3.2970   -0.1230   -1.2310 C   0  0  0  0  0  0  0  0  0  0  0  0
    2.4520    0.1670   -0.0910 N   0  0  0  0  0  0  0  0  0  0  0  0
    2.8080    0.3460    1.1360 C   0  0  0  0  0  0  0  0  0  0  0  0
    1.7630    0.6300    2.0430 N   0  0  0  0  0  0  0  0  0  0  0  0
    0.4380    0.8290    1.5600 C   0  0  0  0  0  0  0  0  0  0  0  0
   -0.2480   -0.3860    1.0160 C   0  0  0  0  0  0  0  0  0  0  0  0
   -1.5950    0.0200    0.5450 C   0  0  0  0  0  0  0  0  0  0  0  0
   -1.9470    1.2440    0.5610 O   0  0  0  0  0  0  0  0  0  0  0  0
   -2.5790   -0.8790    0.0490 N   0  0  0  0  0  0  0  0  0  0  0  0
   -3.8500   -0.4360   -0.3970 C   0  0  0  0  0  0  0  0  0  0  0  0
   -4.1910   -0.0930   -1.6890 C   0  0  0  0  0  0  0  0  0  0  0  0
   -3.2750   -0.1370   -2.8590 C   0  0  0  0  0  0  0  0  0  0  0  0
   -5.4930    0.2750   -1.6430 N   0  0  0  0  0  0  0  0  0  0  0  0
   -5.9670    0.1820   -0.4340 N   0  0  0  0  0  0  0  0  0  0  0  0
   -7.3260    0.5020   -0.0510 C   0  0  0  0  0  0  0  0  0  0  0  0
   -4.9740   -0.2570    0.3720 C   0  0  0  0  0  0  0  0  0  0  0  0
   -5.1000   -0.4950    1.8260 C   0  0  0  0  0  0  0  0  0  0  0  0
  1  2  1  0
  2  3  2  0
  2 11  1  0
  3  4  1  0
  4  5  1  0
  5  6  2  0
  5  9  1  0
  6  7  1  0
  7  8  1  0
  8  9  2  0
  9 10  1  0
 10 11  2  0
 11 12  1  0
 12 13  1  0
 13 14  1  0
 14 15  1  0
 15 16  2  0
 15 17  1  0
 17 18  1  0
 18 19  1  0
 18 24  2  0
 19 20  1  0
 19 21  2  0
 21 22  1  0
 22 23  1  0
 22 24  1  0
 24 25  1  0
M  END
