
     RDKit          3D

 25 28  0  0  0  0  0  0  0  0999 V2000
    1.3150   -1.5530    3.0570 C   0  0  0  0  0  0  0  0  0  0  0  0
    1.6520   -2.1410    1.7110 C   0  0  0  0  0  0  0  0  0  0  0  0
    1.9450   -1.0690    0.7340 C   0  0  0  0  0  0  0  0  0  0  0  0
    3.2870   -0.8480    0.3970 C   0  0  0  0  0  0  0  0  0  0  0  0
    3.6550    0.1240   -0.5040 C   0  0  0  0  0  0  0  0  0  0  0  0
    5.0060    0.3020   -0.8030 C   0  0  0  0  0  0  0  0  0  0  0  0
    5.9780   -0.5650   -0.1350 C   0  0  0  0  0  0  0  0  0  0  0  0
    5.3260    1.2880   -1.7130 C   0  0  0  0  0  0  0  0  0  0  0  0
    4.3410    2.0580   -2.2940 C   0  0  0  0  0  0  0  0  0  0  0  0
    3.0530    1.8500   -1.9740 N   0  0  0  0  0  0  0  0  0  0  0  0
    2.6700    0.8940   -1.0840 C   0  0  0  0  0  0  0  0  0  0  0  0
    1.3890    0.6950   -0.7740 N   0  0  0  0  0  0  0  0  0  0  0  0
    1.0260   -0.2710    0.1210 C   0  0  0  0  0  0  0  0  0  0  0  0
   -0.3950   -0.4470    0.4300 C   0  0  0  0  0  0  0  0  0  0  0  0
   -0.8450   -1.2870    1.2360 O   0  0  0  0  0  0  0  0  0  0  0  0
   -1.3870    0.3730   -0.2080 N   0  0  0  0  0  0  0  0  0  0  0  0
   -2.7850    0.2420    0.0570 C   0  0  1  0  0  0  0  0  0  0  0  0
   -3.3160    1.5550    0.5980 C   0  0  0  0  0  0  0  0  0  0  0  0
   -4.7290    1.3810    1.0470 C   0  0  0  0  0  0  0  0  0  0  0  0
   -5.5450    0.4040    0.2770 C   0  0  0  0  0  0  0  0  0  0  0  0
   -4.9500    0.0240   -1.0460 C   0  0  0  0  0  0  0  0  0  0  0  0
   -5.4620   -0.2790   -2.2350 N   0  0  0  0  0  0  0  0  0  0  0  0
   -4.4750   -0.5420   -3.0650 N   0  0  0  0  0  0  0  0  0  0  0  0
   -3.2930   -0.4170   -2.4370 C   0  0  0  0  0  0  0  0  0  0  0  0
   -3.5820   -0.0570   -1.1530 C   0  0  0  0  0  0  0  0  0  0  0  0
  1  2  1  0
  2  3  1  0
  3  4  2  0
  3 13  1  0
  4  5  1  0
  5  6  2  0
  5 11  1  0
  6  7  1  0
  6  8  1  0
  8  9  2  0
  9 10  1  0
 10 11  2  0
 11 12  1  0
 12 13  2  0
 13 14  1  0
 14 15  2  0
 14 16  1  0
 17 16  1  6
 17 18  1  0
 17 25  1  0
 18 19  1  0
 19 20  1  0
 20 21  1  0
 21 22  1  0
 21 25  2  0
 22 23  1  0
 23 24  2  0
 24 25  1  0
M  END
