
     RDKit          3D

 19 21  0  0  0  0  0  0  0  0999 V2000
   -5.3370    0.0420   -0.5290 O   0  0  0  0  0  0  0  0  0  0  0  0
   -4.1150   -0.1660   -0.3740 C   0  0  0  0  0  0  0  0  0  0  0  0
   -3.0800    0.2790   -1.3420 C   0  0  0  0  0  0  0  0  0  0  0  0
   -2.1150    1.1390   -0.5550 C   0  0  0  0  0  0  0  0  0  0  0  0
   -1.5010    0.4520    0.6220 C   0  0  2  0  0  0  0  0  0  0  0  0
   -0.0880    0.2340    0.4500 N   0  0  0  0  0  0  0  0  0  0  0  0
    0.9410    0.7600    1.2720 C   0  0  0  0  0  0  0  0  0  0  0  0
    0.8050    1.5090    2.2960 O   0  0  0  0  0  0  0  0  0  0  0  0
    2.2320    0.3320    0.7980 C   0  0  0  0  0  0  0  0  0  0  0  0
    3.5360    0.5710    1.2480 C   0  0  0  0  0  0  0  0  0  0  0  0
    4.5870    0.0150    0.5760 C   0  0  0  0  0  0  0  0  0  0  0  0
    4.4080   -0.7760   -0.5350 C   0  0  0  0  0  0  0  0  0  0  0  0
    3.1300   -1.0060   -0.9700 C   0  0  0  0  0  0  0  0  0  0  0  0
    2.0420   -0.4580   -0.3120 C   0  0  0  0  0  0  0  0  0  0  0  0
    0.5930   -0.5310   -0.5450 C   0  0  0  0  0  0  0  0  0  0  0  0
    0.0700   -1.1690   -1.4770 O   0  0  0  0  0  0  0  0  0  0  0  0
   -2.2150   -0.7970    0.9980 C   0  0  0  0  0  0  0  0  0  0  0  0
   -1.6480   -1.7980    1.5090 O   0  0  0  0  0  0  0  0  0  0  0  0
   -3.6180   -0.8570    0.7650 N   0  0  0  0  0  0  0  0  0  0  0  0
  1  2  2  0
  2  3  1  0
  2 19  1  0
  3  4  1  0
  4  5  1  0
  5  6  1  6
  5 17  1  0
  6  7  1  0
  6 15  1  0
  7  8  2  0
  7  9  1  0
  9 10  2  0
  9 14  1  0
 10 11  1  0
 11 12  2  0
 12 13  1  0
 13 14  2  0
 14 15  1  0
 15 16  2  0
 17 18  2  0
 17 19  1  0
M  END
