
     RDKit          3D

 25 28  0  0  0  0  0  0  0  0999 V2000
    7.1030   -2.2800   -0.4480 C   0  0  0  0  0  0  0  0  0  0  0  0
    6.2320   -1.1260   -0.0250 C   0  0  0  0  0  0  0  0  0  0  0  0
    6.6970    0.0690    0.4760 C   0  0  0  0  0  0  0  0  0  0  0  0
    5.5950    0.8190    0.7270 N   0  0  0  0  0  0  0  0  0  0  0  0
    4.5210    0.1190    0.3970 C   0  0  0  0  0  0  0  0  0  0  0  0
    3.1090    0.4780    0.4760 C   0  0  0  0  0  0  0  0  0  0  0  0
    2.1290   -0.3330    0.1060 N   0  0  0  0  0  0  0  0  0  0  0  0
    0.8180   -0.0630    0.1550 C   0  0  0  0  0  0  0  0  0  0  0  0
   -0.1140   -1.0760   -0.3040 C   0  0  0  0  0  0  0  0  0  0  0  0
    0.3630   -2.2860   -0.7820 N   0  0  0  0  0  0  0  0  0  0  0  0
   -0.6490   -3.0660   -1.1460 C   0  0  0  0  0  0  0  0  0  0  0  0
   -1.7770   -2.3390   -0.8950 C   0  0  0  0  0  0  0  0  0  0  0  0
   -1.4330   -1.1410   -0.3860 N   0  0  0  0  0  0  0  0  0  0  0  0
   -2.3830   -0.1610   -0.0180 C   0  0  2  0  0  0  0  0  0  0  0  0
   -3.7490   -0.9010    0.1270 C   0  0  0  0  0  0  0  0  0  0  0  0
   -4.6020   -0.1220    1.0850 C   0  0  0  0  0  0  0  0  0  0  0  0
   -4.9740    1.1800    0.4500 C   0  0  0  0  0  0  0  0  0  0  0  0
   -5.1410    0.9840   -1.0120 C   0  0  0  0  0  0  0  0  0  0  0  0
   -3.8870    0.8530   -1.7910 C   0  0  0  0  0  0  0  0  0  0  0  0
   -2.6260    0.9340   -0.9950 C   0  0  0  0  0  0  0  0  0  0  0  0
    0.4420    1.1340    0.6180 C   0  0  0  0  0  0  0  0  0  0  0  0
    1.4120    2.0610    1.0340 C   0  0  0  0  0  0  0  0  0  0  0  0
    2.7330    1.7130    0.9550 C   0  0  0  0  0  0  0  0  0  0  0  0
    3.7350    2.6320    1.3700 N   0  0  0  0  0  0  0  0  0  0  0  0
    4.9330   -1.0430   -0.0510 O   0  0  0  0  0  0  0  0  0  0  0  0
  1  2  1  0
  2  3  2  0
  2 25  1  0
  3  4  1  0
  4  5  2  0
  5  6  1  0
  5 25  1  0
  6  7  2  0
  6 23  1  0
  7  8  1  0
  8  9  1  0
  8 21  2  0
  9 10  2  0
  9 13  1  0
 10 11  1  0
 11 12  2  0
 12 13  1  0
 14 13  1  6
 14 15  1  0
 14 20  1  0
 15 16  1  0
 16 17  1  0
 17 18  1  0
 18 19  1  0
 19 20  1  0
 21 22  1  0
 22 23  2  0
 23 24  1  0
M  END
