
     RDKit          3D

 12 12  0  0  0  0  0  0  0  0999 V2000
    3.3020   -0.9560    0.2720 C   0  0  0  0  0  0  0  0  0  0  0  0
    2.0920   -0.3190    0.6240 O   0  0  0  0  0  0  0  0  0  0  0  0
    1.2550   -0.2790   -0.5120 C   0  0  0  0  0  0  0  0  0  0  0  0
   -0.0310    0.4090   -0.0980 C   0  0  1  0  0  0  0  0  0  0  0  0
    0.2930    1.8000    0.4210 C   0  0  0  0  0  0  0  0  0  0  0  0
   -0.8840    2.4560    0.7790 O   0  0  0  0  0  0  0  0  0  0  0  0
   -0.8560    0.4500   -1.2110 O   0  0  0  0  0  0  0  0  0  0  0  0
   -2.1970    0.2820   -0.8950 C   0  0  0  0  0  0  0  0  0  0  0  0
   -2.4880   -1.0150   -0.2010 C   0  0  0  0  0  0  0  0  0  0  0  0
   -1.3260   -1.4590    0.4390 O   0  0  0  0  0  0  0  0  0  0  0  0
   -0.7410   -0.3210    0.9970 C   0  0  1  0  0  0  0  0  0  0  0  0
    0.0700   -0.6220    2.0790 O   0  0  0  0  0  0  0  0  0  0  0  0
  1  2  1  0
  2  3  1  0
  4  3  1  6
  4  5  1  0
  4  7  1  0
  4 11  1  0
  5  6  1  0
  7  8  1  0
  8  9  1  0
  9 10  1  0
 10 11  1  0
 11 12  1  1
M  END
