
     RDKit          3D

 12 12  0  0  0  0  0  0  0  0999 V2000
   -1.8510    1.5070    0.2660 C   0  0  0  0  0  0  0  0  0  0  0  0
   -0.8370    0.7590   -0.5450 C   0  0  2  0  0  0  0  0  0  0  0  0
   -1.4800    0.2070   -1.6530 O   0  0  0  0  0  0  0  0  0  0  0  0
   -0.1100   -0.2930    0.2620 C   0  0  2  0  0  0  0  0  0  0  0  0
   -1.0830   -1.3340    0.8060 C   0  0  0  0  0  0  0  0  0  0  0  0
   -1.7580   -1.9760   -0.2360 O   0  0  0  0  0  0  0  0  0  0  0  0
    0.5050    0.2850    1.3360 O   0  0  0  0  0  0  0  0  0  0  0  0
    1.6260    1.0050    1.0910 C   0  0  0  0  0  0  0  0  0  0  0  0
    2.5010    0.5320   -0.0060 C   0  0  0  0  0  0  0  0  0  0  0  0
    1.8490   -0.1310   -1.0290 O   0  0  0  0  0  0  0  0  0  0  0  0
    0.8960   -1.0210   -0.5720 C   0  0  2  0  0  0  0  0  0  0  0  0
    0.3030   -1.5990   -1.7040 O   0  0  0  0  0  0  0  0  0  0  0  0
  2  1  1  1
  2  3  1  0
  2  4  1  0
  4  5  1  1
  4  7  1  0
  4 11  1  0
  5  6  1  0
  7  8  1  0
  8  9  1  0
  9 10  1  0
 10 11  1  0
 11 12  1  6
M  END
