
     RDKit          3D

 42 45  0  0  0  0  0  0  0  0999 V2000
    7.9670    1.7530   -2.8590 C   0  0  0  0  0  0  0  0  0  0  0  0
    6.7890    2.4650   -2.5800 O   0  0  0  0  0  0  0  0  0  0  0  0
    5.8980    1.9060   -1.6440 C   0  0  0  0  0  0  0  0  0  0  0  0
    4.7260    2.6200   -1.3550 C   0  0  0  0  0  0  0  0  0  0  0  0
    3.8440    2.0890   -0.4460 C   0  0  0  0  0  0  0  0  0  0  0  0
    4.0950    0.8840    0.1660 C   0  0  0  0  0  0  0  0  0  0  0  0
    3.2650    0.3130    1.0680 O   0  0  0  0  0  0  0  0  0  0  0  0
    2.0440    0.7100    1.5500 C   0  0  0  0  0  0  0  0  0  0  0  0
    0.9860    0.7070    0.5150 C   0  0  0  0  0  0  0  0  0  0  0  0
    1.1630    0.5060   -0.8590 C   0  0  0  0  0  0  0  0  0  0  0  0
   -0.0060    0.5190   -1.4460 O   0  0  0  0  0  0  0  0  0  0  0  0
   -0.9890    0.7140   -0.5710 C   0  0  0  0  0  0  0  0  0  0  0  0
   -2.3920    0.7620   -0.9500 C   0  0  0  0  0  0  0  0  0  0  0  0
   -2.6020    0.9420   -2.2110 O   0  0  0  0  0  0  0  0  0  0  0  0
   -3.4230    0.5970   -0.0380 N   0  0  0  0  0  0  0  0  0  0  0  0
   -4.8800    0.5670   -0.5080 C   0  0  1  0  0  0  0  0  0  0  0  0
   -4.8700   -0.6480   -1.4070 C   0  0  0  0  0  0  0  0  0  0  0  0
   -4.5470   -1.9920   -1.0430 C   0  0  2  0  0  0  0  0  0  0  0  0
   -4.6540   -2.7820   -2.4140 C   0  0  0  0  0  0  0  0  0  0  0  0
   -5.4320   -2.7870   -0.1470 C   0  0  0  0  0  0  0  0  0  0  0  0
   -3.2270   -2.2430   -0.6780 O   0  0  0  0  0  0  0  0  0  0  0  0
   -5.6620    0.4600    0.6950 C   0  0  0  0  0  0  0  0  0  0  0  0
   -5.3590   -0.3660    1.7700 C   0  0  0  0  0  0  0  0  0  0  0  0
   -6.0540   -0.3190    2.9560 C   0  0  0  0  0  0  0  0  0  0  0  0
   -7.0970    0.5600    3.1460 C   0  0  0  0  0  0  0  0  0  0  0  0
   -7.4020    1.3830    2.0900 C   0  0  0  0  0  0  0  0  0  0  0  0
   -6.7240    1.3610    0.8790 C   0  0  0  0  0  0  0  0  0  0  0  0
   -7.1690    2.2400   -0.1650 C   0  0  2  0  0  0  0  0  0  0  0  0
   -8.5780    2.7390    0.1610 C   0  0  0  0  0  0  0  0  0  0  0  0
   -7.1470    1.8740   -1.4670 O   0  0  0  0  0  0  0  0  0  0  0  0
   -0.3910    0.8370    0.6600 C   0  0  0  0  0  0  0  0  0  0  0  0
    5.2690    0.1420   -0.1080 C   0  0  0  0  0  0  0  0  0  0  0  0
    5.4710   -1.1560    0.5230 C   0  0  0  0  0  0  0  0  0  0  0  0
    6.8420   -1.6190    0.7270 C   0  0  0  0  0  0  0  0  0  0  0  0
    7.3370   -2.5970   -0.1480 C   0  0  0  0  0  0  0  0  0  0  0  0
    8.6080   -3.0860    0.0110 C   0  0  0  0  0  0  0  0  0  0  0  0
    9.0720   -4.0390   -0.8420 F   0  0  0  0  0  0  0  0  0  0  0  0
    9.4280   -2.6460    1.0150 C   0  0  0  0  0  0  0  0  0  0  0  0
    8.9320   -1.6870    1.8650 C   0  0  0  0  0  0  0  0  0  0  0  0
    7.6370   -1.1630    1.7320 C   0  0  0  0  0  0  0  0  0  0  0  0
    7.2050   -0.1840    2.6660 N   0  0  0  0  0  0  0  0  0  0  0  0
    6.1430    0.7090   -1.0320 C   0  0  0  0  0  0  0  0  0  0  0  0
  1  2  1  0
  2  3  1  0
  3  4  2  0
  3 42  1  0
  4  5  1  0
  5  6  2  0
  6  7  1  0
  6 32  1  0
  7  8  1  0
  8  9  1  0
  9 10  2  0
  9 31  1  0
 10 11  1  0
 11 12  1  0
 12 13  1  0
 12 31  2  0
 13 14  2  0
 13 15  1  0
 15 16  1  0
 16 17  1  6
 16 22  1  0
 17 18  1  0
 18 19  1  6
 18 20  1  0
 18 21  1  0
 22 23  2  0
 22 27  1  0
 23 24  1  0
 24 25  2  0
 25 26  1  0
 26 27  2  0
 27 28  1  0
 28 29  1  1
 28 30  1  0
 32 33  1  0
 32 42  2  0
 33 34  1  0
 34 35  2  0
 34 40  1  0
 35 36  1  0
 36 37  1  0
 36 38  2  0
 38 39  1  0
 39 40  2  0
 40 41  1  0
M  END
