
     RDKit          3D

 42 45  0  0  0  0  0  0  0  0999 V2000
    8.7050    2.7330   -0.4720 C   0  0  0  0  0  0  0  0  0  0  0  0
    8.2380    1.3900   -0.3460 O   0  0  0  0  0  0  0  0  0  0  0  0
    9.0420    0.4460    0.2690 C   0  0  0  0  0  0  0  0  0  0  0  0
    9.9590   -0.3050   -0.4660 C   0  0  0  0  0  0  0  0  0  0  0  0
   10.0110   -0.0520   -1.8000 F   0  0  0  0  0  0  0  0  0  0  0  0
   10.7400   -1.2240    0.1530 C   0  0  0  0  0  0  0  0  0  0  0  0
   10.6550   -1.4440    1.5050 C   0  0  0  0  0  0  0  0  0  0  0  0
    9.7670   -0.7240    2.2460 C   0  0  0  0  0  0  0  0  0  0  0  0
    8.9680    0.2170    1.6130 C   0  0  0  0  0  0  0  0  0  0  0  0
    8.0940    0.9050    2.4420 O   0  0  0  0  0  0  0  0  0  0  0  0
    6.6990    0.7840    2.2290 C   0  0  0  0  0  0  0  0  0  0  0  0
    5.8420    1.5620    2.9740 C   0  0  0  0  0  0  0  0  0  0  0  0
    4.4960    1.4460    2.7710 C   0  0  0  0  0  0  0  0  0  0  0  0
    4.0270    0.5540    1.8220 C   0  0  0  0  0  0  0  0  0  0  0  0
    4.8400   -0.2350    1.0610 C   0  0  0  0  0  0  0  0  0  0  0  0
    4.4490   -1.1630    0.0410 C   0  0  0  0  0  0  0  0  0  0  0  0
    3.3200   -1.4530   -0.4700 C   0  0  0  0  0  0  0  0  0  0  0  0
    1.9570   -1.0270   -0.2990 C   0  0  0  0  0  0  0  0  0  0  0  0
    1.0010   -1.5740   -1.0430 C   0  0  0  0  0  0  0  0  0  0  0  0
   -0.3750   -1.1090   -0.8340 C   0  0  0  0  0  0  0  0  0  0  0  0
   -0.6360   -0.2330    0.0300 O   0  0  0  0  0  0  0  0  0  0  0  0
   -1.4520   -1.6280   -1.5940 N   0  0  0  0  0  0  0  0  0  0  0  0
   -2.8110   -1.2720   -1.4850 C   0  0  0  0  0  0  0  0  0  0  0  0
   -3.6490   -1.6040   -2.5640 C   0  0  0  0  0  0  0  0  0  0  0  0
   -4.9930   -1.3220   -2.5630 C   0  0  0  0  0  0  0  0  0  0  0  0
   -5.5920   -0.6980   -1.5040 C   0  0  0  0  0  0  0  0  0  0  0  0
   -7.0360   -0.3550   -1.4700 C   0  0  1  0  0  0  0  0  0  0  0  0
   -7.7930   -1.5150   -0.9270 C   0  0  0  0  0  0  0  0  0  0  0  0
   -9.2470   -1.2850   -0.8520 C   0  0  0  0  0  0  0  0  0  0  0  0
  -10.1360   -2.2560   -0.3430 N   0  0  0  0  0  0  0  0  0  0  0  0
   -9.7030   -0.1860   -1.2560 O   0  0  0  0  0  0  0  0  0  0  0  0
   -7.1790    0.8900   -0.6670 C   0  0  0  0  0  0  0  0  0  0  0  0
   -7.7620    0.8450    0.5770 C   0  0  0  0  0  0  0  0  0  0  0  0
   -7.8780    2.0120    1.2980 C   0  0  0  0  0  0  0  0  0  0  0  0
   -8.4730    1.9640    2.5600 O   0  0  0  0  0  0  0  0  0  0  0  0
   -7.4410    3.2380    0.8470 C   0  0  0  0  0  0  0  0  0  0  0  0
   -6.8600    3.2570   -0.4020 C   0  0  0  0  0  0  0  0  0  0  0  0
   -6.7330    2.0990   -1.1430 C   0  0  0  0  0  0  0  0  0  0  0  0
   -6.1260    2.1850   -2.4190 O   0  0  0  0  0  0  0  0  0  0  0  0
   -4.7800   -0.3670   -0.4380 C   0  0  0  0  0  0  0  0  0  0  0  0
   -3.4220   -0.6540   -0.4420 C   0  0  0  0  0  0  0  0  0  0  0  0
    6.2270   -0.0850    1.3050 C   0  0  0  0  0  0  0  0  0  0  0  0
  1  2  1  0
  2  3  1  0
  3  4  2  0
  3  9  1  0
  4  5  1  0
  4  6  1  0
  6  7  2  0
  7  8  1  0
  8  9  2  0
  9 10  1  0
 10 11  1  0
 11 12  2  0
 11 42  1  0
 12 13  1  0
 13 14  2  0
 14 15  1  0
 15 16  1  0
 15 42  2  0
 16 17  2  3
 17 18  1  0
 18 19  2  3
 19 20  1  0
 20 21  2  0
 20 22  1  0
 22 23  1  0
 23 24  2  0
 23 41  1  0
 24 25  1  0
 25 26  2  0
 26 27  1  0
 26 40  1  0
 27 28  1  1
 27 32  1  0
 28 29  1  0
 29 30  1  0
 29 31  2  0
 32 33  2  0
 32 38  1  0
 33 34  1  0
 34 35  1  0
 34 36  2  0
 36 37  1  0
 37 38  2  0
 38 39  1  0
 40 41  2  0
M  END
