
     RDKit          3D

 42 45  0  0  0  0  0  0  0  0999 V2000
  -10.1180   -0.6540   -1.8540 C   0  0  0  0  0  0  0  0  0  0  0  0
   -8.7920   -0.9160   -1.0760 C   0  0  2  0  0  0  0  0  0  0  0  0
   -8.1420   -1.9670   -1.6070 O   0  0  0  0  0  0  0  0  0  0  0  0
   -7.0520   -1.5250   -2.4330 C   0  0  0  0  0  0  0  0  0  0  0  0
   -6.1170   -0.7360   -1.5400 C   0  0  0  0  0  0  0  0  0  0  0  0
   -5.4470   -1.4280   -0.5450 C   0  0  0  0  0  0  0  0  0  0  0  0
   -4.6570   -0.7060    0.3210 C   0  0  0  0  0  0  0  0  0  0  0  0
   -4.5120    0.6490    0.2510 C   0  0  0  0  0  0  0  0  0  0  0  0
   -3.7700    1.4600    1.2230 C   0  0  2  0  0  0  0  0  0  0  0  0
   -4.4410    2.7300    1.2190 O   0  0  0  0  0  0  0  0  0  0  0  0
   -2.3970    1.6570    0.7430 C   0  0  0  0  0  0  0  0  0  0  0  0
   -1.5800    0.4630    0.8140 N   0  0  0  0  0  0  0  0  0  0  0  0
   -0.2010    0.6220    0.3190 C   0  0  0  0  0  0  0  0  0  0  0  0
   -0.0190    1.7560   -0.1950 O   0  0  0  0  0  0  0  0  0  0  0  0
    0.7240   -0.3970    0.4380 N   0  0  0  0  0  0  0  0  0  0  0  0
    2.1060   -0.3990    0.0800 C   0  0  0  0  0  0  0  0  0  0  0  0
    3.0640    0.4740    0.8070 C   0  0  1  0  0  0  0  0  0  0  0  0
    4.4630    0.3400    0.3450 C   0  0  0  0  0  0  0  0  0  0  0  0
    4.9840    1.1760   -0.5890 C   0  0  0  0  0  0  0  0  0  0  0  0
    6.3310    0.8710   -0.8820 O   0  0  0  0  0  0  0  0  0  0  0  0
    7.0630    1.2830   -2.0470 C   0  0  0  0  0  0  0  0  0  0  0  0
    8.4600    0.7170   -1.7420 C   0  0  0  0  0  0  0  0  0  0  0  0
    9.0130   -0.3820   -2.2950 C   0  0  0  0  0  0  0  0  0  0  0  0
   10.1420   -0.9320   -1.6310 C   0  0  0  0  0  0  0  0  0  0  0  0
   10.6790   -0.4730   -0.5600 C   0  0  0  0  0  0  0  0  0  0  0  0
   11.4800   -1.1640    0.3800 C   0  0  0  0  0  0  0  0  0  0  0  0
   12.1840   -1.7760    1.2350 C   0  0  0  0  0  0  0  0  0  0  0  0
   13.0380   -2.5040    2.2560 C   0  0  0  0  0  0  0  0  0  0  0  0
   13.9020   -1.6180    2.8520 O   0  0  0  0  0  0  0  0  0  0  0  0
   10.1100    0.7410    0.0650 C   0  0  0  0  0  0  0  0  0  0  0  0
    9.0190    1.2730   -0.5690 C   0  0  0  0  0  0  0  0  0  0  0  0
    4.2470    2.1520   -1.1300 O   0  0  0  0  0  0  0  0  0  0  0  0
    2.9370    2.4860   -0.6540 C   0  0  0  0  0  0  0  0  0  0  0  0
    2.7740    1.9800    0.7310 C   0  0  0  0  0  0  0  0  0  0  0  0
   -5.2210    1.3100   -0.7890 C   0  0  0  0  0  0  0  0  0  0  0  0
   -6.0010    0.6210   -1.6720 C   0  0  0  0  0  0  0  0  0  0  0  0
   -9.2010   -0.9560    0.3650 C   0  0  0  0  0  0  0  0  0  0  0  0
  -10.3220   -0.6240    0.8930 C   0  0  0  0  0  0  0  0  0  0  0  0
  -11.4750   -0.1320    0.3100 F   0  0  0  0  0  0  0  0  0  0  0  0
  -10.2840   -0.7650    2.3650 C   0  0  0  0  0  0  0  0  0  0  0  0
   -8.9280   -1.2680    2.6380 C   0  0  0  0  0  0  0  0  0  0  0  0
   -8.3310   -1.3620    1.4780 C   0  0  0  0  0  0  0  0  0  0  0  0
  2  1  1  6
  2  3  1  0
  2 37  1  0
  3  4  1  0
  4  5  1  0
  5  6  2  0
  5 36  1  0
  6  7  1  0
  7  8  2  0
  8  9  1  0
  8 35  1  0
  9 10  1  6
  9 11  1  0
 11 12  1  0
 12 13  1  0
 13 14  2  0
 13 15  1  0
 15 16  1  0
 17 16  1  6
 17 18  1  0
 17 34  1  0
 18 19  2  0
 19 20  1  0
 19 32  1  0
 20 21  1  0
 21 22  1  0
 22 23  2  0
 22 31  1  0
 23 24  1  0
 24 25  2  0
 25 26  1  0
 25 30  1  0
 26 27  3  0
 27 28  1  0
 28 29  1  0
 30 31  2  0
 32 33  1  0
 33 34  1  0
 35 36  2  0
 37 38  2  0
 37 42  1  0
 38 39  1  0
 38 40  1  0
 40 41  1  0
 41 42  2  0
M  END
