
     RDKit          3D

 42 45  0  0  0  0  0  0  0  0999 V2000
    5.5990   -1.1790    3.2360 C   0  0  0  0  0  0  0  0  0  0  0  0
    4.1750   -0.7340    3.0620 C   0  0  0  0  0  0  0  0  0  0  0  0
    3.8440   -0.7230    1.5890 C   0  0  1  0  0  0  0  0  0  0  0  0
    2.4500   -0.2830    1.4810 N   0  0  0  0  0  0  0  0  0  0  0  0
    1.4310   -1.1190    0.9930 C   0  0  0  0  0  0  0  0  0  0  0  0
    1.8250   -2.2880    0.6540 O   0  0  0  0  0  0  0  0  0  0  0  0
    0.0790   -0.7850    0.8570 N   0  0  0  0  0  0  0  0  0  0  0  0
   -0.4320    0.4950    1.2140 C   0  0  0  0  0  0  0  0  0  0  0  0
   -1.2060    1.0410    0.0690 C   0  0  0  0  0  0  0  0  0  0  0  0
   -1.1650    2.3250   -0.1370 N   0  0  0  0  0  0  0  0  0  0  0  0
   -1.8530    2.9170   -1.1760 O   0  0  0  0  0  0  0  0  0  0  0  0
   -2.6020    4.0590   -1.0370 C   0  0  0  0  0  0  0  0  0  0  0  0
   -2.7430    4.7340    0.1590 C   0  0  0  0  0  0  0  0  0  0  0  0
   -3.5180    5.8940    0.2490 C   0  0  0  0  0  0  0  0  0  0  0  0
   -4.1500    6.3740   -0.8640 C   0  0  0  0  0  0  0  0  0  0  0  0
   -4.0290    5.7190   -2.0830 C   0  0  0  0  0  0  0  0  0  0  0  0
   -3.2510    4.5680   -2.1390 C   0  0  0  0  0  0  0  0  0  0  0  0
   -2.0060    0.3250   -0.8520 N   0  0  0  0  0  0  0  0  0  0  0  0
   -2.6640   -0.9640   -0.8530 C   0  0  0  0  0  0  0  0  0  0  0  0
   -2.2690   -1.8580    0.2460 C   0  0  1  0  0  0  0  0  0  0  0  0
   -2.7420   -3.2640    0.2230 C   0  0  0  0  0  0  0  0  0  0  0  0
   -4.2020   -3.4590    0.2320 C   0  0  0  0  0  0  0  0  0  0  0  0
   -4.7960   -3.6960    1.4780 C   0  0  0  0  0  0  0  0  0  0  0  0
   -6.1580   -3.8550    1.5690 C   0  0  0  0  0  0  0  0  0  0  0  0
   -6.8610   -4.1520    3.1570 Cl  0  0  0  0  0  0  0  0  0  0  0  0
   -6.9530   -3.7820    0.4290 C   0  0  0  0  0  0  0  0  0  0  0  0
   -6.3550   -3.5490   -0.7850 C   0  0  0  0  0  0  0  0  0  0  0  0
   -4.9700   -3.3860   -0.8960 C   0  0  0  0  0  0  0  0  0  0  0  0
   -4.3820   -3.1570   -2.1280 O   0  0  0  0  0  0  0  0  0  0  0  0
   -5.2160   -3.0880   -3.2660 C   0  0  0  0  0  0  0  0  0  0  0  0
   -0.7590   -1.8380    0.3270 C   0  0  0  0  0  0  0  0  0  0  0  0
   -0.1680   -2.8550   -0.1170 O   0  0  0  0  0  0  0  0  0  0  0  0
    4.7670    0.0820    0.7860 C   0  0  0  0  0  0  0  0  0  0  0  0
    4.7300    1.4630    0.7450 C   0  0  0  0  0  0  0  0  0  0  0  0
    5.5990    2.2200   -0.0100 C   0  0  0  0  0  0  0  0  0  0  0  0
    6.5660    1.5890   -0.7750 C   0  0  0  0  0  0  0  0  0  0  0  0
    7.4970    2.3510   -1.5810 C   0  0  0  0  0  0  0  0  0  0  0  0
    8.3580    1.7440   -2.2590 O   0  0  0  0  0  0  0  0  0  0  0  0
    7.4920    3.7340   -1.6470 O   0  0  0  0  0  0  0  0  0  0  0  0
    6.6410    0.2200   -0.7650 C   0  0  0  0  0  0  0  0  0  0  0  0
    7.6410   -0.4120   -1.5560 N   0  0  0  0  0  0  0  0  0  0  0  0
    5.7540   -0.5150    0.0030 C   0  0  0  0  0  0  0  0  0  0  0  0
  1  2  1  0
  3  2  1  1
  3  4  1  0
  3 33  1  0
  4  5  1  0
  5  6  2  0
  5  7  1  0
  7  8  1  0
  7 31  1  0
  8  9  1  0
  9 10  2  3
  9 18  1  0
 10 11  1  0
 11 12  1  0
 12 13  2  0
 12 17  1  0
 13 14  1  0
 14 15  2  0
 15 16  1  0
 16 17  2  0
 18 19  1  0
 19 20  1  0
 20 21  1  6
 20 31  1  0
 21 22  1  0
 22 23  2  0
 22 28  1  0
 23 24  1  0
 24 25  1  0
 24 26  2  0
 26 27  1  0
 27 28  2  0
 28 29  1  0
 29 30  1  0
 31 32  2  0
 33 34  2  0
 33 42  1  0
 34 35  1  0
 35 36  2  0
 36 37  1  0
 36 40  1  0
 37 38  2  0
 37 39  1  0
 40 41  1  0
 40 42  2  0
M  END
