
     RDKit          3D

 15 16  0  0  0  0  0  0  0  0999 V2000
    0.3330    1.6430   -0.1030 O   0  0  0  0  0  0  0  0  0  0  0  0
   -0.3950    0.6800    0.2230 C   0  0  0  0  0  0  0  0  0  0  0  0
    0.1590   -0.3430    1.0390 N   0  0  0  0  0  0  0  0  0  0  0  0
    1.5030   -0.3530    1.5190 C   0  0  0  0  0  0  0  0  0  0  0  0
    2.4930   -0.3500    0.4020 C   0  0  0  0  0  0  0  0  0  0  0  0
    3.0240    0.7470   -0.1840 N   0  0  0  0  0  0  0  0  0  0  0  0
    3.8660    0.3690   -1.1390 N   0  0  0  0  0  0  0  0  0  0  0  0
    3.8900   -0.9860   -1.1830 C   0  0  0  0  0  0  0  0  0  0  0  0
    4.5520   -1.7280   -1.9390 O   0  0  0  0  0  0  0  0  0  0  0  0
    3.0440   -1.4090   -0.2330 N   0  0  0  0  0  0  0  0  0  0  0  0
   -1.7940    0.6220   -0.2360 C   0  0  0  0  0  0  0  0  0  0  0  0
   -2.6530   -0.3440    0.0460 C   0  0  0  0  0  0  0  0  0  0  0  0
   -3.9680   -0.0820   -0.5780 C   0  0  0  0  0  0  0  0  0  0  0  0
   -3.7410    1.2080   -1.2790 C   0  0  0  0  0  0  0  0  0  0  0  0
   -2.4810    1.5960   -1.0690 C   0  0  0  0  0  0  0  0  0  0  0  0
  1  2  2  0
  2  3  1  0
  2 11  1  0
  3  4  1  0
  4  5  1  0
  5  6  2  0
  5 10  1  0
  6  7  1  0
  7  8  1  0
  8  9  2  0
  8 10  1  0
 11 12  2  0
 11 15  1  0
 12 13  1  0
 13 14  1  0
 14 15  2  0
M  END
