
     RDKit          3D

 15 15  0  0  0  0  0  0  0  0999 V2000
    1.9270    1.2790    1.7740 C   0  0  0  0  0  0  0  0  0  0  0  0
    2.2500    1.3830    0.5070 C   0  0  0  0  0  0  0  0  0  0  0  0
    1.9150    0.3550   -0.4710 C   0  0  0  0  0  0  0  0  0  0  0  0
    2.3140    0.5960   -1.7370 C   0  0  0  0  0  0  0  0  0  0  0  0
    1.2210   -0.8380   -0.1640 N   0  0  0  0  0  0  0  0  0  0  0  0
    1.7530   -2.0650   -0.7750 C   0  0  0  0  0  0  0  0  0  0  0  0
    0.0830   -0.9610    0.6590 C   0  0  0  0  0  0  0  0  0  0  0  0
   -1.0880   -0.4280    0.4060 C   0  0  0  0  0  0  0  0  0  0  0  0
   -1.3120    0.3430   -0.7560 N   0  0  0  0  0  0  0  0  0  0  0  0
   -2.6030    0.9090   -0.9950 C   0  0  0  0  0  0  0  0  0  0  0  0
   -2.7340    1.5850   -2.0490 O   0  0  0  0  0  0  0  0  0  0  0  0
   -3.7040    0.7420   -0.1140 N   0  0  0  0  0  0  0  0  0  0  0  0
   -3.4880   -0.0210    1.0390 N   0  0  0  0  0  0  0  0  0  0  0  0
   -2.2280   -0.6070    1.3280 C   0  0  0  0  0  0  0  0  0  0  0  0
   -2.0350   -1.2890    2.3590 O   0  0  0  0  0  0  0  0  0  0  0  0
  1  2  2  0
  2  3  1  0
  3  4  2  0
  3  5  1  0
  5  6  1  0
  5  7  1  0
  7  8  2  3
  8  9  1  0
  8 14  1  0
  9 10  1  0
 10 11  2  0
 10 12  1  0
 12 13  1  0
 13 14  1  0
 14 15  2  0
M  END
