
     RDKit          3D

 15 16  0  0  0  0  0  0  0  0999 V2000
    1.6430    1.3390   -1.5240 C   0  0  0  0  0  0  0  0  0  0  0  0
    1.9410    0.4680   -0.6330 C   0  0  0  0  0  0  0  0  0  0  0  0
    3.3520    0.3710   -0.3290 O   0  0  0  0  0  0  0  0  0  0  0  0
    3.8800   -0.4600    0.6120 C   0  0  0  0  0  0  0  0  0  0  0  0
    3.0390   -1.1870    1.2480 N   0  0  0  0  0  0  0  0  0  0  0  0
    1.6810   -1.1480    1.0050 C   0  0  0  0  0  0  0  0  0  0  0  0
    1.0270   -0.3700    0.0930 C   0  0  0  0  0  0  0  0  0  0  0  0
   -0.4020   -0.3090    0.2570 C   0  0  0  0  0  0  0  0  0  0  0  0
   -1.3260    0.0590   -0.5570 C   0  0  0  0  0  0  0  0  0  0  0  0
   -1.0960    0.4910   -1.9590 C   0  0  0  0  0  0  0  0  0  0  0  0
   -2.7470    0.1870   -0.1830 N   0  0  0  0  0  0  0  0  0  0  0  0
   -3.2040   -0.0840    1.1150 C   0  0  0  0  0  0  0  0  0  0  0  0
   -4.4100    0.0160    1.4660 O   0  0  0  0  0  0  0  0  0  0  0  0
   -2.2010   -0.4860    2.0280 N   0  0  0  0  0  0  0  0  0  0  0  0
   -0.9010   -0.5850    1.6080 N   0  0  0  0  0  0  0  0  0  0  0  0
  1  2  2  0
  2  3  1  0
  2  7  1  0
  3  4  1  0
  4  5  2  0
  5  6  1  0
  6  7  2  0
  7  8  1  0
  8  9  2  0
  8 15  1  0
  9 10  1  0
  9 11  1  0
 11 12  1  0
 12 13  2  0
 12 14  1  0
 14 15  1  0
M  END
