
     RDKit          3D

 15 16  0  0  0  0  0  0  0  0999 V2000
    4.9620   -0.6840   -0.6350 O   0  0  0  0  0  0  0  0  0  0  0  0
    3.8350   -0.2430   -0.2880 C   0  0  0  0  0  0  0  0  0  0  0  0
    3.3400    0.9260   -0.7340 N   0  0  0  0  0  0  0  0  0  0  0  0
    2.1310    1.3720   -0.3450 C   0  0  0  0  0  0  0  0  0  0  0  0
    1.3450    0.6460    0.5310 C   0  0  0  0  0  0  0  0  0  0  0  0
    0.0690    1.1230    0.9380 N   0  0  0  0  0  0  0  0  0  0  0  0
   -1.0320    0.5580    0.5730 C   0  0  0  0  0  0  0  0  0  0  0  0
   -2.3370    1.0530    0.9950 C   0  0  0  0  0  0  0  0  0  0  0  0
   -3.4140    0.5120    0.4330 C   0  0  0  0  0  0  0  0  0  0  0  0
   -3.3440   -0.5580   -0.5900 C   0  0  0  0  0  0  0  0  0  0  0  0
   -2.0810   -0.4430   -1.2880 N   0  0  0  0  0  0  0  0  0  0  0  0
   -1.0320   -0.6440   -0.3090 C   0  0  0  0  0  0  0  0  0  0  0  0
    1.8670   -0.5500    0.9790 C   0  0  0  0  0  0  0  0  0  0  0  0
    1.1790   -1.2360    1.7770 O   0  0  0  0  0  0  0  0  0  0  0  0
    3.0780   -0.9670    0.5710 N   0  0  0  0  0  0  0  0  0  0  0  0
  1  2  2  0
  2  3  1  0
  2 15  1  0
  3  4  1  0
  4  5  2  0
  5  6  1  0
  5 13  1  0
  6  7  2  3
  7  8  1  0
  7 12  1  0
  8  9  2  0
  9 10  1  0
 10 11  1  0
 11 12  1  0
 13 14  2  0
 13 15  1  0
M  END
