
     RDKit          3D

 15 16  0  0  0  0  0  0  0  0999 V2000
   -2.1050    1.7490    1.7010 N   0  0  0  0  0  0  0  0  0  0  0  0
   -2.0430    0.7710    0.6920 C   0  0  0  0  0  0  0  0  0  0  0  0
   -3.1510    0.2330    0.0930 C   0  0  0  0  0  0  0  0  0  0  0  0
   -3.0390   -0.6930   -0.8610 N   0  0  0  0  0  0  0  0  0  0  0  0
   -1.8600   -1.1640   -1.3040 C   0  0  0  0  0  0  0  0  0  0  0  0
   -1.7470   -2.0340   -2.2010 O   0  0  0  0  0  0  0  0  0  0  0  0
   -0.7390   -0.6320   -0.7120 C   0  0  0  0  0  0  0  0  0  0  0  0
   -0.7900    0.3220    0.2730 C   0  0  0  0  0  0  0  0  0  0  0  0
    0.3620    0.8580    0.8710 O   0  0  0  0  0  0  0  0  0  0  0  0
    1.5780    0.3750    0.4160 C   0  0  0  0  0  0  0  0  0  0  0  0
    2.0860   -0.7870    0.9510 C   0  0  0  0  0  0  0  0  0  0  0  0
    3.2610   -1.2740    0.5260 N   0  0  0  0  0  0  0  0  0  0  0  0
    3.9860   -0.6610   -0.4250 C   0  0  0  0  0  0  0  0  0  0  0  0
    3.4590    0.5040   -0.9490 C   0  0  0  0  0  0  0  0  0  0  0  0
    2.2800    1.0170   -0.5410 N   0  0  0  0  0  0  0  0  0  0  0  0
  1  2  1  0
  2  3  2  0
  2  8  1  0
  3  4  1  0
  4  5  1  0
  5  6  2  0
  5  7  1  0
  7  8  2  0
  8  9  1  0
  9 10  1  0
 10 11  2  0
 10 15  1  0
 11 12  1  0
 12 13  2  0
 13 14  1  0
 14 15  2  0
M  END
