
     RDKit          3D

 15 16  0  0  0  0  0  0  0  0999 V2000
   -2.6990    2.0680    0.7180 C   0  0  0  0  0  0  0  0  0  0  0  0
   -1.3940    1.4310    0.3880 C   0  0  0  0  0  0  0  0  0  0  0  0
   -1.2870    0.2700   -0.1700 C   0  0  0  0  0  0  0  0  0  0  0  0
   -2.4460   -0.6190   -0.5800 C   0  0  0  0  0  0  0  0  0  0  0  0
   -1.9110   -1.0110   -1.9140 N   0  0  0  0  0  0  0  0  0  0  0  0
   -0.5330   -1.2250   -1.6360 C   0  0  0  0  0  0  0  0  0  0  0  0
   -0.1220   -0.4810   -0.5950 C   0  0  0  0  0  0  0  0  0  0  0  0
    1.2360   -0.4670   -0.1170 C   0  0  0  0  0  0  0  0  0  0  0  0
    2.2430   -0.9600   -0.9090 N   0  0  0  0  0  0  0  0  0  0  0  0
    3.4850   -1.0300   -0.5140 N   0  0  0  0  0  0  0  0  0  0  0  0
    3.7930   -0.5990    0.7270 C   0  0  0  0  0  0  0  0  0  0  0  0
    5.0060   -0.6740    1.0940 O   0  0  0  0  0  0  0  0  0  0  0  0
    2.8650   -0.1080    1.5530 N   0  0  0  0  0  0  0  0  0  0  0  0
    1.5680   -0.0390    1.1340 C   0  0  0  0  0  0  0  0  0  0  0  0
    0.7440    0.4260    1.9650 O   0  0  0  0  0  0  0  0  0  0  0  0
  1  2  1  0
  2  3  2  3
  3  4  1  0
  3  7  1  0
  4  5  1  0
  5  6  1  0
  6  7  2  0
  7  8  1  0
  8  9  2  0
  8 14  1  0
  9 10  1  0
 10 11  1  0
 11 12  2  0
 11 13  1  0
 13 14  1  0
 14 15  2  0
M  END
