
     RDKit          3D

 25 27  0  0  0  0  0  0  0  0999 V2000
   -2.2130    3.6120    1.4090 C   0  0  0  0  0  0  0  0  0  0  0  0
   -2.7790    2.2880    1.5880 N   0  0  0  0  0  0  0  0  0  0  0  0
   -2.3290    1.3790    0.5490 C   0  0  0  0  0  0  0  0  0  0  0  0
   -1.6720    0.1520    1.1440 C   0  0  0  0  0  0  0  0  0  0  0  0
   -1.1940   -0.8080    0.0990 C   0  0  2  0  0  0  0  0  0  0  0  0
   -0.2180   -0.2290   -0.7950 N   0  0  0  0  0  0  0  0  0  0  0  0
    0.9280    0.2900   -0.0680 C   0  0  0  0  0  0  0  0  0  0  0  0
    2.1180    0.1680   -0.9820 C   0  0  1  0  0  0  0  0  0  0  0  0
    1.9020    0.9720   -2.2670 C   0  0  0  0  0  0  0  0  0  0  0  0
    2.8950    2.1550   -2.1830 C   0  0  0  0  0  0  0  0  0  0  0  0
    3.1580    2.1810   -0.7400 C   0  0  0  0  0  0  0  0  0  0  0  0
    3.3110    2.8190    0.3640 C   0  0  0  0  0  0  0  0  0  0  0  0
    3.5750    1.9000    1.4420 N   0  0  0  0  0  0  0  0  0  0  0  0
    3.5870    0.6850    1.0090 C   0  0  0  0  0  0  0  0  0  0  0  0
    3.8670   -0.7140    2.0080 S   0  0  2  0  0  0  0  0  0  0  0  0
    5.5520   -1.0770    2.1410 N   0  0  0  0  0  0  0  0  0  0  0  0
    3.2130   -1.9500    1.4150 O   0  0  0  0  0  0  0  0  0  0  0  0
    3.3300   -0.5480    3.3930 O   0  0  0  0  0  0  0  0  0  0  0  0
    3.3740    0.7170   -0.4140 C   0  0  1  0  0  0  0  0  0  0  0  0
   -2.3540   -1.3680   -0.6310 C   0  0  2  0  0  0  0  0  0  0  0  0
   -3.2370   -2.0900    0.3980 C   0  0  0  0  0  0  0  0  0  0  0  0
   -3.8950   -3.2920   -0.2540 C   0  0  0  0  0  0  0  0  0  0  0  0
   -2.9590   -4.2560   -0.6140 O   0  0  0  0  0  0  0  0  0  0  0  0
   -1.7320   -3.6940   -0.9660 C   0  0  0  0  0  0  0  0  0  0  0  0
   -2.0100   -2.4010   -1.6720 C   0  0  0  0  0  0  0  0  0  0  0  0
  1  2  1  0
  2  3  1  0
  3  4  1  0
  5  4  1  1
  5  6  1  0
  5 20  1  0
  6  7  1  0
  8  7  1  1
  8  9  1  0
  8 19  1  0
  9 10  1  0
 10 11  1  0
 11 12  2  0
 11 19  1  0
 12 13  1  0
 13 14  2  0
 14 15  1  0
 19 14  1  1
 15 16  1  1
 15 17  2  0
 15 18  2  0
 20 21  1  1
 20 25  1  0
 21 22  1  0
 22 23  1  0
 23 24  1  0
 24 25  1  0
M  CHG  2   2   1   6   1
M  END
