
     RDKit          3D

 25 27  0  0  0  0  0  0  0  0999 V2000
    3.7930    0.4200    2.5220 N   0  0  0  0  0  0  0  0  0  0  0  0
    2.4730   -0.1160    2.3550 C   0  0  0  0  0  0  0  0  0  0  0  0
    1.6710    0.0220    3.3030 O   0  0  0  0  0  0  0  0  0  0  0  0
    2.0670   -0.8000    1.1330 C   0  0  2  0  0  0  0  0  0  0  0  0
    0.6420   -1.2250    1.0860 C   0  0  0  0  0  0  0  0  0  0  0  0
   -0.3650   -0.1160    1.1900 C   0  0  0  0  0  0  0  0  0  0  0  0
   -1.7310   -0.7630    1.1140 C   0  0  2  0  0  0  0  0  0  0  0  0
   -1.9420   -1.5180   -0.1820 C   0  0  0  0  0  0  0  0  0  0  0  0
   -3.4540   -1.5950   -0.2220 C   0  0  0  0  0  0  0  0  0  0  0  0
   -3.9660   -0.4840    0.5040 N   0  0  2  0  0  0  0  0  0  0  0  0
   -4.9350    0.2640   -0.2170 C   0  0  1  0  0  0  0  0  0  0  0  0
   -5.2670    1.5920    0.4200 C   0  0  0  0  0  0  0  0  0  0  0  0
   -5.9770    2.3420   -0.6960 C   0  0  0  0  0  0  0  0  0  0  0  0
   -5.6780    1.6310   -1.9750 C   0  0  0  0  0  0  0  0  0  0  0  0
   -4.5510    0.6640   -1.6020 C   0  0  0  0  0  0  0  0  0  0  0  0
   -2.8410    0.2900    0.9860 C   0  0  0  0  0  0  0  0  0  0  0  0
    3.1900   -2.2350    0.9280 S   0  0  0  0  0  0  0  0  0  0  0  0
    4.8320   -1.6050    0.6230 C   0  0  0  0  0  0  0  0  0  0  0  0
    5.3570   -1.3210   -0.5740 N   0  0  0  0  0  0  0  0  0  0  0  0
    6.6260   -0.8650   -0.4040 C   0  0  0  0  0  0  0  0  0  0  0  0
    7.5110   -0.4550   -1.5170 C   0  0  0  0  0  0  0  0  0  0  0  0
    7.3430    1.0350   -1.8280 C   0  0  0  0  0  0  0  0  0  0  0  0
    6.0380    1.3180   -2.1890 O   0  0  0  0  0  0  0  0  0  0  0  0
    6.8320   -0.8870    0.9190 N   0  0  0  0  0  0  0  0  0  0  0  0
    5.7560   -1.3290    1.5130 O   0  0  0  0  0  0  0  0  0  0  0  0
  1  2  1  0
  2  3  2  0
  2  4  1  0
  4  5  1  1
  4 17  1  0
  5  6  1  0
  7  6  1  6
  7  8  1  0
  7 16  1  0
  8  9  1  0
 10  9  1  6
 10 11  1  0
 10 16  1  0
 11 12  1  1
 11 15  1  0
 12 13  1  0
 13 14  1  0
 14 15  1  0
 17 18  1  0
 18 19  2  0
 18 25  1  0
 19 20  1  0
 20 21  1  0
 20 24  2  0
 21 22  1  0
 22 23  1  0
 24 25  1  0
M  CHG  1  10   1
M  END
