
     RDKit          3D

 25 26  0  0  0  0  0  0  0  0999 V2000
    5.2370   -0.1780   -3.8220 C   0  0  0  0  0  0  0  0  0  0  0  0
    4.3830   -0.0730   -2.8350 C   0  0  0  0  0  0  0  0  0  0  0  0
    2.9600    0.1530   -3.0940 N   0  0  0  0  0  0  0  0  0  0  0  0
    2.3160    0.2200   -1.8650 N   0  0  0  0  0  0  0  0  0  0  0  0
    0.9120    0.4320   -1.7180 C   0  0  0  0  0  0  0  0  0  0  0  0
    0.1820    0.5700   -2.7220 O   0  0  0  0  0  0  0  0  0  0  0  0
    0.2810    0.4940   -0.3760 C   0  0  0  0  0  0  0  0  0  0  0  0
   -1.1980    0.7240   -0.4870 C   0  0  0  0  0  0  0  0  0  0  0  0
   -1.8740    0.7930    0.8430 C   0  0  2  0  0  0  0  0  0  0  0  0
   -1.7390   -0.3490    1.5950 O   0  0  0  0  0  0  0  0  0  0  0  0
   -3.3140    1.2230    0.6550 C   0  0  0  0  0  0  0  0  0  0  0  0
   -4.1190    0.2440   -0.0040 N   0  0  0  0  0  0  0  0  0  0  0  0
   -4.8220   -0.6400    0.9120 C   0  0  0  0  0  0  0  0  0  0  0  0
   -6.3400   -0.5140    0.7290 C   0  0  1  0  0  0  0  0  0  0  0  0
   -7.0300   -1.4470    1.6980 C   0  0  0  0  0  0  0  0  0  0  0  0
   -7.7560   -0.2660    2.3050 C   0  0  0  0  0  0  0  0  0  0  0  0
   -6.9190    0.6760    1.4660 C   0  0  0  0  0  0  0  0  0  0  0  0
    3.2400    0.0510   -0.8460 N   0  0  0  0  0  0  0  0  0  0  0  0
    4.5690   -0.1390   -1.4110 C   0  0  0  0  0  0  0  0  0  0  0  0
    5.6370   -0.3220   -0.6650 C   0  0  0  0  0  0  0  0  0  0  0  0
    6.9950   -0.5220   -1.0000 C   0  0  0  0  0  0  0  0  0  0  0  0
    7.9520   -0.6920   -0.1190 C   0  0  0  0  0  0  0  0  0  0  0  0
    7.8160   -0.7090    1.3060 C   0  0  0  0  0  0  0  0  0  0  0  0
    9.0490   -0.9180    2.0660 N   0  0  0  0  0  0  0  0  0  0  0  0
    6.8210   -0.5740    2.0220 O   0  0  0  0  0  0  0  0  0  0  0  0
  1  2  2  0
  2  3  1  0
  2 19  1  0
  3  4  1  0
  4  5  1  0
  4 18  1  0
  5  6  2  0
  5  7  1  0
  7  8  1  0
  8  9  1  0
  9 10  1  6
  9 11  1  0
 11 12  1  0
 12 13  1  0
 14 13  1  1
 14 15  1  0
 14 17  1  0
 15 16  1  0
 16 17  1  0
 18 19  1  0
 19 20  2  3
 20 21  1  0
 21 22  2  3
 22 23  1  0
 23 24  1  0
 23 25  2  0
M  CHG  1  12   1
M  END
