
     RDKit          3D

 43 46  0  0  0  0  0  0  0  0999 V2000
   -2.6180   -3.6100    0.2190 C   0  0  0  0  0  0  0  0  0  0  0  0
   -3.1370   -2.2770    0.3570 O   0  0  0  0  0  0  0  0  0  0  0  0
   -2.5330   -1.2480    0.8390 N   0  0  0  0  0  0  0  0  0  0  0  0
   -1.4840   -0.5980    0.6680 C   0  0  0  0  0  0  0  0  0  0  0  0
   -0.3660   -0.6650   -0.2140 C   0  0  0  0  0  0  0  0  0  0  0  0
   -0.2090   -0.9840   -1.4800 C   0  0  0  0  0  0  0  0  0  0  0  0
   -1.3820   -1.3560   -2.2970 C   0  0  0  0  0  0  0  0  0  0  0  0
   -1.1430   -1.8250   -3.4990 C   0  0  0  0  0  0  0  0  0  0  0  0
   -2.0310   -2.2840   -4.5290 C   0  0  0  0  0  0  0  0  0  0  0  0
   -1.5500   -2.7140   -5.6980 C   0  0  0  0  0  0  0  0  0  0  0  0
   -2.3990   -3.1510   -6.7130 N   0  0  0  0  0  0  0  0  0  0  0  0
   -2.6230   -1.1750   -1.8230 O   0  0  0  0  0  0  0  0  0  0  0  0
   -3.9020   -1.0920   -2.3100 C   0  0  0  0  0  0  0  0  0  0  0  0
   -4.2110    0.0360   -3.2510 C   0  0  0  0  0  0  0  0  0  0  0  0
   -3.9860    1.2660   -2.5750 O   0  0  0  0  0  0  0  0  0  0  0  0
   -4.2580    2.2800   -3.3770 O   0  0  0  0  0  0  0  0  0  0  0  0
    1.0840   -0.9410   -2.0300 O   0  0  0  0  0  0  0  0  0  0  0  0
    1.8600    0.2900   -1.9700 C   0  0  0  0  0  0  0  0  0  0  0  0
    1.1180    1.4620   -2.4100 C   0  0  0  0  0  0  0  0  0  0  0  0
    0.4350    1.2720   -3.5160 O   0  0  0  0  0  0  0  0  0  0  0  0
    0.9920    2.7610   -1.8870 N   0  0  0  0  0  0  0  0  0  0  0  0
    0.5850    3.1830   -0.6080 C   0  0  0  0  0  0  0  0  0  0  0  0
    0.0250    4.3830   -0.2390 N   0  0  0  0  0  0  0  0  0  0  0  0
   -0.2060    4.3580    1.0650 N   0  0  0  0  0  0  0  0  0  0  0  0
    0.1980    3.1860    1.5000 C   0  0  0  0  0  0  0  0  0  0  0  0
    0.6650    2.5100    0.4690 O   0  0  0  0  0  0  0  0  0  0  0  0
    0.2560    2.4750    2.8060 C   0  0  1  0  0  0  0  0  0  0  0  0
   -1.0920    2.1520    3.3870 C   0  0  0  0  0  0  0  0  0  0  0  0
   -1.5710    0.7690    2.9530 C   0  0  0  0  0  0  0  0  0  0  0  0
   -2.4390    0.1810    3.5910 O   0  0  0  0  0  0  0  0  0  0  0  0
   -0.9960    0.1960    1.8050 N   0  0  0  0  0  0  0  0  0  0  0  0
    0.3530    0.4840    1.4910 C   0  0  0  0  0  0  0  0  0  0  0  0
    0.7380    0.0480    0.4220 N   0  0  0  0  0  0  0  0  0  0  0  0
    1.0800    1.2130    2.5870 C   0  0  1  0  0  0  0  0  0  0  0  0
    2.4060    1.4210    2.2820 O   0  0  0  0  0  0  0  0  0  0  0  0
    3.3920    0.7150    3.0140 C   0  0  0  0  0  0  0  0  0  0  0  0
    2.9930   -0.0670    3.9170 O   0  0  0  0  0  0  0  0  0  0  0  0
    4.7120    0.8220    2.7950 O   0  0  0  0  0  0  0  0  0  0  0  0
    5.8050    0.2070    3.3820 C   0  0  0  0  0  0  0  0  0  0  0  0
    6.0980    0.4430    4.8110 C   0  0  0  0  0  0  0  0  0  0  0  0
    5.0830    0.0730    5.7880 C   0  0  0  0  0  0  0  0  0  0  0  0
    4.3690    0.9200    6.4440 O   0  0  0  0  0  0  0  0  0  0  0  0
    4.7770   -1.2630    6.1150 O   0  0  0  0  0  0  0  0  0  0  0  0
  1  2  1  0
  2  3  1  0
  3  4  2  3
  4  5  1  0
  4 31  1  0
  5  6  2  0
  5 33  1  0
  6  7  1  0
  6 17  1  0
  7  8  2  3
  7 12  1  0
  8  9  1  0
  9 10  2  3
 10 11  1  0
 12 13  1  0
 13 14  1  0
 14 15  1  0
 15 16  1  0
 17 18  1  0
 18 19  1  0
 19 20  2  0
 19 21  1  0
 21 22  1  0
 22 23  2  0
 22 26  1  0
 23 24  1  0
 24 25  2  0
 25 26  1  0
 25 27  1  0
 27 28  1  6
 27 34  1  0
 28 29  1  0
 29 30  2  0
 29 31  1  0
 31 32  1  0
 32 33  2  0
 32 34  1  0
 34 35  1  6
 35 36  1  0
 36 37  2  0
 36 38  1  0
 38 39  1  0
 39 40  1  0
 40 41  1  0
 41 42  2  0
 41 43  1  0
M  END
