
     RDKit          3D

 43 45  0  0  0  0  0  0  0  0999 V2000
   -3.2790    7.4150   -1.7140 C   0  0  0  0  0  0  0  0  0  0  0  0
   -3.1600    6.6550   -0.4450 N   0  0  0  0  0  0  0  0  0  0  0  0
   -2.3960    5.5730   -0.7460 N   0  0  0  0  0  0  0  0  0  0  0  0
   -2.6680    4.2270   -0.1090 C   0  0  0  0  0  0  0  0  0  0  0  0
   -3.5690    4.2400    0.6670 O   0  0  0  0  0  0  0  0  0  0  0  0
   -1.7500    3.3020   -0.6270 N   0  0  0  0  0  0  0  0  0  0  0  0
   -2.2090    1.9780    0.4300 C   0  0  0  0  0  0  0  0  0  0  0  0
   -3.0420    2.2430    1.1750 O   0  0  0  0  0  0  0  0  0  0  0  0
   -1.3650    0.8440    0.0580 C   0  0  2  0  0  0  0  0  0  0  0  0
   -1.4870    0.6110   -1.4060 C   0  0  0  0  0  0  0  0  0  0  0  0
   -0.3360    1.0450   -2.1690 O   0  0  0  0  0  0  0  0  0  0  0  0
    0.9220    0.5130   -1.6940 C   0  0  0  0  0  0  0  0  0  0  0  0
    1.8370    0.2170   -2.4530 O   0  0  0  0  0  0  0  0  0  0  0  0
    0.9600    0.3730   -0.2500 N   0  0  0  0  0  0  0  0  0  0  0  0
    1.7740   -0.7340    0.2460 C   0  0  0  0  0  0  0  0  0  0  0  0
    3.1300   -0.7310   -0.2410 C   0  0  0  0  0  0  0  0  0  0  0  0
    3.5850    0.2380   -0.9240 O   0  0  0  0  0  0  0  0  0  0  0  0
    4.1840   -1.7870   -0.0590 C   0  0  0  0  0  0  0  0  0  0  0  0
    5.4740   -1.3380   -0.4040 O   0  0  0  0  0  0  0  0  0  0  0  0
    6.0400   -0.3320    0.3820 C   0  0  0  0  0  0  0  0  0  0  0  0
    5.3070    0.0650    1.3640 O   0  0  0  0  0  0  0  0  0  0  0  0
    7.3750    0.2540    0.1370 C   0  0  0  0  0  0  0  0  0  0  0  0
    7.6440    1.1590    1.1510 O   0  0  0  0  0  0  0  0  0  0  0  0
    8.8220    1.6810    0.9110 O   0  0  0  0  0  0  0  0  0  0  0  0
    9.6920    1.0840    1.7030 O   0  0  0  0  0  0  0  0  0  0  0  0
    1.2080   -1.4740    1.0860 N   0  0  0  0  0  0  0  0  0  0  0  0
    1.1600   -2.5210    1.9150 N   0  0  0  0  0  0  0  0  0  0  0  0
    1.0940   -3.7640    1.3630 C   0  0  0  0  0  0  0  0  0  0  0  0
    1.0760   -3.8580   -0.0970 C   0  0  0  0  0  0  0  0  0  0  0  0
    0.0290   -3.7170   -0.8790 C   0  0  0  0  0  0  0  0  0  0  0  0
   -1.3530   -3.4630   -0.6480 C   0  0  0  0  0  0  0  0  0  0  0  0
   -2.2010   -2.6880   -0.0740 C   0  0  0  0  0  0  0  0  0  0  0  0
   -3.6670   -3.0880   -0.2900 C   0  0  0  0  0  0  0  0  0  0  0  0
   -4.6820   -2.3830    0.1890 C   0  0  0  0  0  0  0  0  0  0  0  0
   -5.9330   -2.9110   -0.1030 O   0  0  0  0  0  0  0  0  0  0  0  0
   -3.9290   -4.2330   -1.0070 O   0  0  0  0  0  0  0  0  0  0  0  0
   -4.6850   -5.3310   -0.5180 C   0  0  0  0  0  0  0  0  0  0  0  0
   -2.0770   -1.5480    0.8260 C   0  0  0  0  0  0  0  0  0  0  0  0
   -2.7220   -1.8600    1.9980 O   0  0  0  0  0  0  0  0  0  0  0  0
   -1.5550   -0.2790    0.9320 N   0  0  0  0  0  0  0  0  0  0  0  0
   -1.0780    0.3370    2.2300 C   0  0  0  0  0  0  0  0  0  0  0  0
    0.0670    1.2030    1.8900 C   0  0  0  0  0  0  0  0  0  0  0  0
    0.0910    1.2510    0.4310 C   0  0  2  0  0  0  0  0  0  0  0  0
  1  2  1  0
  2  3  1  0
  3  4  1  0
  4  5  2  0
  4  6  1  0
  6  7  1  0
  7  8  2  0
  9  7  1  1
  9 10  1  0
  9 40  1  0
  9 43  1  0
 10 11  1  0
 11 12  1  0
 12 13  2  0
 12 14  1  0
 14 15  1  0
 14 43  1  0
 15 16  1  0
 15 26  2  0
 16 17  2  0
 16 18  1  0
 18 19  1  0
 19 20  1  0
 20 21  2  0
 20 22  1  0
 22 23  1  0
 23 24  1  0
 24 25  1  0
 26 27  1  0
 27 28  2  0
 28 29  1  0
 29 30  2  0
 30 31  1  0
 31 32  2  0
 32 33  1  0
 32 38  1  0
 33 34  2  3
 33 36  1  0
 34 35  1  0
 36 37  1  0
 38 39  2  0
 38 40  1  0
 40 41  1  0
 41 42  1  0
 43 42  1  1
M  END
