
     RDKit          3D

 20 19  0  0  0  0  0  0  0  0999 V2000
   -5.1670   -1.8440   -1.9460 N   0  0  0  0  0  0  0  0  0  0  0  0
   -3.7860   -1.9360   -1.6870 C   0  0  0  0  0  0  0  0  0  0  0  0
   -3.0700   -2.9100   -1.9980 O   0  0  0  0  0  0  0  0  0  0  0  0
   -3.1290   -0.7710   -0.9810 C   0  0  0  0  0  0  0  0  0  0  0  0
   -1.6920   -1.0820   -0.8140 C   0  0  0  0  0  0  0  0  0  0  0  0
   -0.9040    0.0190   -0.1630 C   0  0  2  0  0  0  0  0  0  0  0  0
    0.4460   -0.3850   -0.0370 O   0  0  0  0  0  0  0  0  0  0  0  0
    1.2910    0.3970   -0.7750 C   0  0  0  0  0  0  0  0  0  0  0  0
    2.6760   -0.0870   -0.5920 C   0  0  0  0  0  0  0  0  0  0  0  0
    2.9160   -1.0650    0.1460 O   0  0  0  0  0  0  0  0  0  0  0  0
    3.7340    0.5590   -1.2540 N   0  0  0  0  0  0  0  0  0  0  0  0
    5.1220    0.2700   -1.2100 C   0  0  0  0  0  0  0  0  0  0  0  0
    5.6810    0.4600    0.1670 C   0  0  0  0  0  0  0  0  0  0  0  0
    5.0870   -0.3540    1.0950 O   0  0  0  0  0  0  0  0  0  0  0  0
   -1.3790    0.4600    1.1480 C   0  0  0  0  0  0  0  0  0  0  0  0
   -0.6850    0.2410    2.2000 O   0  0  0  0  0  0  0  0  0  0  0  0
   -2.5980    1.1450    1.3730 N   0  0  0  0  0  0  0  0  0  0  0  0
   -3.0190    1.5470    2.6760 C   0  0  0  0  0  0  0  0  0  0  0  0
   -4.1990    2.2090    2.8720 O   0  0  0  0  0  0  0  0  0  0  0  0
   -2.0750    1.2120    3.9560 S   0  0  0  0  0  0  0  0  0  0  0  0
  1  2  1  0
  2  3  2  0
  2  4  1  0
  4  5  1  0
  6  5  1  1
  6  7  1  0
  6 15  1  0
  7  8  1  0
  8  9  1  0
  9 10  2  0
  9 11  1  0
 11 12  1  0
 12 13  1  0
 13 14  1  0
 15 16  2  0
 15 17  1  0
 17 18  1  0
 18 19  1  0
 18 20  2  0
M  END
