
     RDKit          3D

 27 30  0  0  0  0  0  0  0  0999 V2000
    2.6360    1.4710    2.2380 C   0  0  0  0  0  0  0  0  0  0  0  0
    2.4800    1.1870    0.7870 C   0  0  2  0  0  0  0  0  0  0  0  0
    3.1430    2.3380    0.0150 C   0  0  0  0  0  0  0  0  0  0  0  0
    2.0010    3.2590   -0.3890 C   0  0  0  0  0  0  0  0  0  0  0  0
    0.8000    2.5370    0.1330 C   0  0  2  0  0  0  0  0  0  0  0  0
    1.2090    1.2510    0.3010 O   0  0  0  0  0  0  0  0  0  0  0  0
   -0.3510    2.5070   -0.8730 C   0  0  1  0  0  0  0  0  0  0  0  0
   -0.1800    1.5540   -1.8530 O   0  0  0  0  0  0  0  0  0  0  0  0
   -1.6650    2.3500   -0.1470 C   0  0  0  0  0  0  0  0  0  0  0  0
   -2.3980    1.0830   -0.5440 C   0  0  2  0  0  0  0  0  0  0  0  0
   -3.8420    1.4160   -0.6890 C   0  0  0  0  0  0  0  0  0  0  0  0
   -4.5380    1.9340    0.5170 C   0  0  0  0  0  0  0  0  0  0  0  0
   -4.0190    3.0980    1.0410 O   0  0  0  0  0  0  0  0  0  0  0  0
   -2.1240    0.0480    0.5150 C   0  0  0  0  0  0  0  0  0  0  0  0
   -2.0170   -1.3500    0.1240 C   0  0  1  0  0  0  0  0  0  0  0  0
   -2.2600   -1.6730   -1.3530 C   0  0  0  0  0  0  0  0  0  0  0  0
   -2.2050   -3.1830   -1.2930 C   0  0  0  0  0  0  0  0  0  0  0  0
   -1.5450   -3.5690    0.0150 C   0  0  0  0  0  0  0  0  0  0  0  0
   -0.9920   -2.2520    0.6140 C   0  0  1  0  0  0  0  0  0  0  0  0
    0.4300   -2.2170    0.3550 C   0  0  1  0  0  0  0  0  0  0  0  0
    0.8980   -1.9770   -1.0480 C   0  0  0  0  0  0  0  0  0  0  0  0
    2.3280   -2.4720   -1.2120 C   0  0  0  0  0  0  0  0  0  0  0  0
    3.1200   -2.4780    0.0490 C   0  0  0  0  0  0  0  0  0  0  0  0
    2.7130   -1.3270    0.9780 C   0  0  2  0  0  0  0  0  0  0  0  0
    1.2880   -1.4690    1.3590 C   0  0  0  0  0  0  0  0  0  0  0  0
    3.1480   -0.0750    0.3280 C   0  0  2  0  0  0  0  0  0  0  0  0
    4.5350    0.1110    0.5510 O   0  0  0  0  0  0  0  0  0  0  0  0
  2  1  1  1
  2  3  1  0
  2  6  1  0
  2 26  1  0
  3  4  1  0
  5  4  1  6
  5  6  1  0
  5  7  1  0
  7  8  1  6
  7  9  1  0
  9 10  1  0
 10 11  1  1
 10 14  1  0
 11 12  1  0
 12 13  1  0
 15 14  1  6
 15 16  1  0
 15 19  1  0
 16 17  1  0
 17 18  1  0
 19 18  1  6
 19 20  1  0
 20 21  1  6
 20 25  1  0
 21 22  1  0
 22 23  1  0
 24 23  1  6
 24 25  1  0
 24 26  1  0
 26 27  1  1
M  END
