
     RDKit          3D

 15 14  0  0  0  0  0  0  0  0999 V2000
    4.3170   -0.4370   -0.0890 C   0  0  0  0  0  0  0  0  0  0  0  0
    3.1470    0.4940   -0.1640 C   0  0  0  0  0  0  0  0  0  0  0  0
    2.1230    0.1580    0.8530 C   0  0  0  0  0  0  0  0  0  0  0  0
    2.3270   -0.7810    1.5960 O   0  0  0  0  0  0  0  0  0  0  0  0
    0.5790    1.1130    1.0100 P   0  0  0  0  0  0  0  0  0  0  0  0
   -0.8640    0.1100    0.3120 C   0  0  1  0  0  0  0  0  0  0  0  0
   -0.5090   -0.2380   -1.1050 C   0  0  0  0  0  0  0  0  0  0  0  0
   -1.0390   -1.0870    1.1800 C   0  0  0  0  0  0  0  0  0  0  0  0
   -2.0270   -1.9560    0.9330 O   0  0  0  0  0  0  0  0  0  0  0  0
   -2.0660   -2.6090   -0.2530 C   0  0  0  0  0  0  0  0  0  0  0  0
   -2.0430    1.0130    0.3400 C   0  0  0  0  0  0  0  0  0  0  0  0
   -3.0550    0.6790    1.0160 O   0  0  0  0  0  0  0  0  0  0  0  0
   -2.0880    2.2070   -0.3410 O   0  0  0  0  0  0  0  0  0  0  0  0
   -3.1560    3.0350   -0.3220 O   0  0  0  0  0  0  0  0  0  0  0  0
   -3.3080    3.5180    0.9050 O   0  0  0  0  0  0  0  0  0  0  0  0
  1  2  1  0
  2  3  1  0
  3  4  2  0
  3  5  1  0
  5  6  1  0
  6  7  1  6
  6  8  1  0
  6 11  1  0
  8  9  1  0
  9 10  1  0
 11 12  2  0
 11 13  1  0
 13 14  1  0
 14 15  1  0
M  END
