
     RDKit          3D

 16 15  0  0  0  0  0  0  0  0999 V2000
    3.2310    0.3080   -0.7470 C   0  0  0  0  0  0  0  0  0  0  0  0
    1.8760    0.5530   -1.4250 C   0  0  0  0  0  0  0  0  0  0  0  0
    0.9360   -0.1270   -0.6710 O   0  0  0  0  0  0  0  0  0  0  0  0
   -0.2790   -0.0240   -1.1110 O   0  0  0  0  0  0  0  0  0  0  0  0
   -1.1490   -0.2250   -0.0430 C   0  0  1  0  0  0  0  0  0  0  0  0
   -2.5940   -0.1160   -0.4970 C   0  0  0  0  0  0  0  0  0  0  0  0
   -3.7000   -0.3890    0.9440 P   0  0  0  0  0  0  0  0  0  0  0  0
   -4.6050   -1.6480    1.0530 O   0  0  0  0  0  0  0  0  0  0  0  0
   -0.8880   -1.5600    0.5340 C   0  0  0  0  0  0  0  0  0  0  0  0
    0.1580   -2.4150   -0.0450 C   0  0  0  0  0  0  0  0  0  0  0  0
   -1.5420   -1.9510    1.4920 O   0  0  0  0  0  0  0  0  0  0  0  0
   -0.9350    0.8620    0.9380 C   0  0  0  0  0  0  0  0  0  0  0  0
   -1.6030    0.9020    1.9920 O   0  0  0  0  0  0  0  0  0  0  0  0
    0.0050    1.8290    0.6810 O   0  0  0  0  0  0  0  0  0  0  0  0
    0.2820    2.8830    1.5250 C   0  0  0  0  0  0  0  0  0  0  0  0
   -0.3610    2.9700    2.6010 O   0  0  0  0  0  0  0  0  0  0  0  0
  1  2  1  0
  2  3  1  0
  3  4  1  0
  4  5  1  0
  5  6  1  6
  5  9  1  0
  5 12  1  0
  6  7  1  0
  7  8  2  0
  9 10  1  0
  9 11  2  0
 12 13  2  0
 12 14  1  0
 14 15  1  0
 15 16  2  0
M  END
