
     RDKit          3D

 16 16  0  0  0  0  0  0  0  0999 V2000
    3.1920   -0.9150    1.0620 C   0  0  0  0  0  0  0  0  0  0  0  0
    2.1340   -0.4720    0.3170 O   0  0  0  0  0  0  0  0  0  0  0  0
    1.1340   -0.0110    0.9930 O   0  0  0  0  0  0  0  0  0  0  0  0
    0.3040    0.7630    0.1800 C   0  0  1  0  0  0  0  0  0  0  0  0
    1.0460    1.9110   -0.3880 C   0  0  0  0  0  0  0  0  0  0  0  0
    2.2550    2.0640   -0.1060 O   0  0  0  0  0  0  0  0  0  0  0  0
    0.4430    2.8260   -1.2260 O   0  0  0  0  0  0  0  0  0  0  0  0
   -0.2190   -0.1580   -0.9030 C   0  0  0  0  0  0  0  0  0  0  0  0
   -1.4570   -0.7350   -0.3070 C   0  0  1  0  0  0  0  0  0  0  0  0
   -2.3840   -1.3460   -1.3270 C   0  0  0  0  0  0  0  0  0  0  0  0
   -1.1180   -1.9850    1.0140 P   0  0  0  0  0  0  0  0  0  0  0  0
   -1.5970   -1.8100    2.4860 O   0  0  0  0  0  0  0  0  0  0  0  0
   -2.0600    0.4530    0.3530 C   0  0  0  0  0  0  0  0  0  0  0  0
   -3.2860    0.7220    0.4090 O   0  0  0  0  0  0  0  0  0  0  0  0
   -0.9260    1.1870    0.8910 C   0  0  0  0  0  0  0  0  0  0  0  0
   -0.9770    2.0380    1.8030 O   0  0  0  0  0  0  0  0  0  0  0  0
  1  2  1  0
  2  3  1  0
  4  3  1  1
  4  5  1  0
  4  8  1  0
  4 15  1  0
  5  6  2  0
  5  7  1  0
  8  9  1  0
  9 10  1  6
  9 11  1  0
  9 13  1  0
 11 12  2  0
 13 14  2  0
 13 15  1  0
 15 16  2  0
M  END
