
     RDKit          3D

 10 10  0  0  0  0  0  0  0  0999 V2000
    2.9480   -0.1760   -0.4130 O   0  0  0  0  0  0  0  0  0  0  0  0
    2.0820    0.0360    0.6830 C   0  0  0  0  0  0  0  0  0  0  0  0
    0.7720    0.5160    0.1270 C   0  0  2  0  0  0  0  0  0  0  0  0
   -0.1180    0.7390    1.1880 O   0  0  0  0  0  0  0  0  0  0  0  0
   -1.3110    0.9410    0.4900 C   0  0  2  0  0  0  0  0  0  0  0  0
   -2.4100    1.0500    1.3130 O   0  0  0  0  0  0  0  0  0  0  0  0
   -1.4070   -0.2830   -0.3860 C   0  0  2  0  0  0  0  0  0  0  0  0
   -2.0750   -1.2790    0.3110 O   0  0  0  0  0  0  0  0  0  0  0  0
    0.0660   -0.6410   -0.5830 C   0  0  1  0  0  0  0  0  0  0  0  0
    0.4050   -0.6990   -1.9210 O   0  0  0  0  0  0  0  0  0  0  0  0
  1  2  1  0
  3  2  1  1
  3  4  1  0
  3  9  1  0
  4  5  1  0
  5  6  1  1
  5  7  1  0
  7  8  1  1
  7  9  1  0
  9 10  1  6
M  END
