
     RDKit          3D

 10  9  0  0  0  0  0  0  0  0999 V2000
    2.7930    0.7230    0.8670 O   0  0  0  0  0  0  0  0  0  0  0  0
    3.1230    0.0860   -0.3390 C   0  0  0  0  0  0  0  0  0  0  0  0
    1.9250   -0.2310   -0.9760 O   0  0  0  0  0  0  0  0  0  0  0  0
    1.1670   -1.0760   -0.1740 C   0  0  0  0  0  0  0  0  0  0  0  0
   -0.1160   -1.4170   -0.8510 C   0  0  0  0  0  0  0  0  0  0  0  0
   -0.9240   -0.3430   -1.1450 O   0  0  0  0  0  0  0  0  0  0  0  0
   -1.3250    0.3910   -0.0600 C   0  0  1  0  0  0  0  0  0  0  0  0
   -0.9820    1.7480   -0.1890 O   0  0  0  0  0  0  0  0  0  0  0  0
   -2.8480    0.3230    0.0580 C   0  0  0  0  0  0  0  0  0  0  0  0
   -3.4090    0.8480   -1.1100 O   0  0  0  0  0  0  0  0  0  0  0  0
  1  2  1  0
  2  3  1  0
  3  4  1  0
  4  5  1  0
  5  6  1  0
  6  7  1  0
  7  8  1  6
  7  9  1  0
  9 10  1  0
M  END
