
     RDKit          3D

 10  9  0  0  0  0  0  0  0  0999 V2000
    2.9290   -0.7000    0.1580 O   0  0  0  0  0  0  0  0  0  0  0  0
    2.6190    0.3680    0.9810 C   0  0  0  0  0  0  0  0  0  0  0  0
    1.6530    1.1560    0.5050 O   0  0  0  0  0  0  0  0  0  0  0  0
    0.4050    0.7490    0.2470 C   0  0  0  0  0  0  0  0  0  0  0  0
    0.1420   -0.3190   -0.7400 C   0  0  1  0  0  0  0  0  0  0  0  0
    0.6530   -1.5610   -0.4980 O   0  0  0  0  0  0  0  0  0  0  0  0
   -1.3260   -0.4010   -1.0750 C   0  0  2  0  0  0  0  0  0  0  0  0
   -1.8630    0.8560   -1.3080 O   0  0  0  0  0  0  0  0  0  0  0  0
   -2.1640   -1.1250   -0.0820 C   0  0  0  0  0  0  0  0  0  0  0  0
   -2.2610   -0.4810    1.1260 O   0  0  0  0  0  0  0  0  0  0  0  0
  1  2  1  0
  2  3  1  0
  3  4  1  0
  4  5  1  0
  5  6  1  1
  5  7  1  0
  7  8  1  1
  7  9  1  0
  9 10  1  0
M  END
