
     RDKit          3D

 13 14  0  0  0  0  0  0  0  0999 V2000
   -1.2670   -2.4230    0.7500 N   0  0  0  0  0  0  0  0  0  0  0  0
   -1.8220   -1.1200    0.7020 C   0  0  0  0  0  0  0  0  0  0  0  0
   -2.6420   -0.8020    1.6010 O   0  0  0  0  0  0  0  0  0  0  0  0
   -1.4440   -0.1640   -0.3760 C   0  0  1  0  0  0  0  0  0  0  0  0
   -2.1640    1.0690   -0.1620 N   0  0  0  0  0  0  0  0  0  0  0  0
   -1.5420    2.3220    0.0780 C   0  0  0  0  0  0  0  0  0  0  0  0
   -0.2210    2.3920    0.1140 C   0  0  0  0  0  0  0  0  0  0  0  0
    0.5660    1.1970   -0.0910 C   0  0  0  0  0  0  0  0  0  0  0  0
    0.0180    0.0200   -0.3170 C   0  0  0  0  0  0  0  0  0  0  0  0
    0.8530   -1.0560   -0.5000 O   0  0  0  0  0  0  0  0  0  0  0  0
    2.1500   -1.1510    0.0500 C   0  0  0  0  0  0  0  0  0  0  0  0
    2.8060    0.1990    0.2010 C   0  0  0  0  0  0  0  0  0  0  0  0
    1.9480    1.2670   -0.0550 O   0  0  0  0  0  0  0  0  0  0  0  0
  1  2  1  0
  2  3  2  0
  4  2  1  1
  4  5  1  0
  4  9  1  0
  5  6  1  0
  6  7  2  0
  7  8  1  0
  8  9  2  0
  8 13  1  0
  9 10  1  0
 10 11  1  0
 11 12  1  0
 12 13  1  0
M  END
