
     RDKit          3D

 14 15  0  0  0  0  0  0  0  0999 V2000
   -2.5070   -1.6380   -0.9230 N   0  0  0  0  0  0  0  0  0  0  0  0
   -1.8840   -0.6870   -0.0080 C   0  0  1  0  0  0  0  0  0  0  0  0
   -0.4600   -1.0190    0.1400 C   0  0  0  0  0  0  0  0  0  0  0  0
    0.3050    0.0340   -0.0930 C   0  0  0  0  0  0  0  0  0  0  0  0
    1.7780    0.0390   -0.0290 C   0  0  0  0  0  0  0  0  0  0  0  0
    2.6030    1.1190   -0.2660 C   0  0  0  0  0  0  0  0  0  0  0  0
    3.8760    0.6780   -0.0970 N   0  0  0  0  0  0  0  0  0  0  0  0
    3.8120   -0.6260    0.2310 C   0  0  0  0  0  0  0  0  0  0  0  0
    4.7810   -1.3940    0.4690 O   0  0  0  0  0  0  0  0  0  0  0  0
    2.5400   -0.9840    0.2650 O   0  0  0  0  0  0  0  0  0  0  0  0
   -0.5150    1.1020   -0.4010 O   0  0  0  0  0  0  0  0  0  0  0  0
   -1.8350    0.6700   -0.6780 C   0  0  2  0  0  0  0  0  0  0  0  0
   -2.8250    1.5870   -0.0860 C   0  0  0  0  0  0  0  0  0  0  0  0
   -4.0090    1.3980   -0.2070 O   0  0  0  0  0  0  0  0  0  0  0  0
  2  1  1  6
  2  3  1  0
  2 12  1  0
  3  4  2  0
  4  5  1  0
  4 11  1  0
  5  6  2  0
  5 10  1  0
  6  7  1  0
  7  8  1  0
  8  9  2  0
  8 10  1  0
 11 12  1  0
 12 13  1  1
 13 14  2  0
M  END
