
     RDKit          3D

 23 24  0  0  0  0  0  0  0  0999 V2000
    0.1250    3.1220   -0.7560 C   0  0  0  0  0  0  0  0  0  0  0  0
    0.3450    1.6440   -0.6590 C   0  0  1  0  0  0  0  0  0  0  0  0
    1.7990    1.2570   -0.8360 C   0  0  0  0  0  0  0  0  0  0  0  0
    2.5620    1.5090    0.4220 C   0  0  0  0  0  0  0  0  0  0  0  0
    3.8020    0.7070    0.5730 C   0  0  0  0  0  0  0  0  0  0  0  0
    3.6960   -0.7610    0.4240 C   0  0  2  0  0  0  0  0  0  0  0  0
    3.8130   -1.1750   -0.9270 O   0  0  0  0  0  0  0  0  0  0  0  0
    2.5380   -1.4220    1.0980 C   0  0  0  0  0  0  0  0  0  0  0  0
    1.8730   -2.4700    0.2560 C   0  0  0  0  0  0  0  0  0  0  0  0
    0.6260   -3.0250    0.8980 C   0  0  0  0  0  0  0  0  0  0  0  0
   -0.5740   -2.1240    0.7740 C   0  0  0  0  0  0  0  0  0  0  0  0
   -1.2780   -1.7210   -0.2190 C   0  0  0  0  0  0  0  0  0  0  0  0
   -2.4790   -0.8180   -0.3280 C   0  0  0  0  0  0  0  0  0  0  0  0
   -3.6130   -1.2770   -1.0260 C   0  0  0  0  0  0  0  0  0  0  0  0
   -4.7600   -0.5490   -1.1650 C   0  0  0  0  0  0  0  0  0  0  0  0
   -5.8470   -1.0590   -1.8670 O   0  0  0  0  0  0  0  0  0  0  0  0
   -4.8320    0.6900   -0.6080 C   0  0  0  0  0  0  0  0  0  0  0  0
   -3.7170    1.1740    0.0910 C   0  0  0  0  0  0  0  0  0  0  0  0
   -3.8170    2.4530    0.6550 O   0  0  0  0  0  0  0  0  0  0  0  0
   -2.5690    0.4450    0.2300 C   0  0  0  0  0  0  0  0  0  0  0  0
   -1.4290    1.0380    0.9860 C   0  0  0  0  0  0  0  0  0  0  0  0
   -1.7320    1.5330    2.1120 O   0  0  0  0  0  0  0  0  0  0  0  0
   -0.1300    1.0680    0.5380 O   0  0  0  0  0  0  0  0  0  0  0  0
  2  1  1  1
  2  3  1  0
  2 23  1  0
  3  4  1  0
  4  5  1  0
  5  6  1  0
  6  7  1  6
  6  8  1  0
  8  9  1  0
  9 10  1  0
 10 11  1  0
 11 12  2  0
 12 13  1  0
 13 14  2  0
 13 20  1  0
 14 15  1  0
 15 16  1  0
 15 17  2  0
 17 18  1  0
 18 19  1  0
 18 20  2  0
 20 21  1  0
 21 22  2  0
 21 23  1  0
M  END
