
     RDKit          3D

 20 21  0  0  0  0  0  0  0  0999 V2000
    6.3000    2.0310   -0.9600 C   0  0  0  0  0  0  0  0  0  0  0  0
    4.6340    2.1280   -0.2470 S   0  0  0  0  0  0  0  0  0  0  0  0
    4.3460    0.7060    0.8500 C   0  0  1  0  0  0  0  0  0  0  0  0
    2.9850    0.8240    1.4060 C   0  0  0  0  0  0  0  0  0  0  0  0
    2.1120   -0.1510    1.2510 C   0  0  0  0  0  0  0  0  0  0  0  0
    0.7270   -0.0180    1.8230 C   0  0  0  0  0  0  0  0  0  0  0  0
   -0.2280   -0.1120    0.6670 C   0  0  0  0  0  0  0  0  0  0  0  0
   -1.6410    0.0050    1.0930 C   0  0  0  0  0  0  0  0  0  0  0  0
   -1.8490    0.1620    2.3270 O   0  0  0  0  0  0  0  0  0  0  0  0
   -2.7330   -0.0520    0.1970 N   0  0  0  0  0  0  0  0  0  0  0  0
   -2.6910   -0.2270   -1.2390 C   0  0  0  0  0  0  0  0  0  0  0  0
   -3.8420   -1.1930   -1.4310 C   0  0  0  0  0  0  0  0  0  0  0  0
   -4.9190   -0.4850   -0.6150 C   0  0  2  0  0  0  0  0  0  0  0  0
   -5.5350    0.5400   -1.4050 N   0  0  0  0  0  0  0  0  0  0  0  0
   -4.1310    0.0540    0.5480 C   0  0  2  0  0  0  0  0  0  0  0  0
   -4.4640    1.4950    0.8520 C   0  0  0  0  0  0  0  0  0  0  0  0
    2.4200   -1.3500    0.5520 N   0  0  0  0  0  0  0  0  0  0  0  0
    3.5780   -1.5530    0.0290 C   0  0  0  0  0  0  0  0  0  0  0  0
    3.8290   -2.7700   -0.6570 N   0  0  0  0  0  0  0  0  0  0  0  0
    4.5630   -0.5380    0.1630 N   0  0  0  0  0  0  0  0  0  0  0  0
  1  2  1  0
  3  2  1  6
  3  4  1  0
  3 20  1  0
  4  5  2  0
  5  6  1  0
  5 17  1  0
  6  7  1  0
  7  8  1  0
  8  9  2  0
  8 10  1  0
 10 11  1  0
 10 15  1  0
 11 12  1  0
 12 13  1  0
 13 14  1  6
 13 15  1  0
 15 16  1  6
 17 18  2  0
 18 19  1  0
 18 20  1  0
M  CHG  1  17   1
M  END
