
     RDKit          3D

 20 20  0  0  0  0  0  0  0  0999 V2000
    3.8990    2.0610   -1.4860 C   0  0  0  0  0  0  0  0  0  0  0  0
    3.2430    0.8450   -1.7730 O   0  0  0  0  0  0  0  0  0  0  0  0
    2.3420    0.6790   -0.6670 C   0  0  0  0  0  0  0  0  0  0  0  0
    1.6360   -0.5930   -0.9390 C   0  0  0  0  0  0  0  0  0  0  0  0
    0.6520   -1.1120    0.0160 C   0  0  1  0  0  0  0  0  0  0  0  0
    0.1640   -2.3400   -0.5350 O   0  0  0  0  0  0  0  0  0  0  0  0
    1.3760   -1.5780    1.2860 C   0  0  0  0  0  0  0  0  0  0  0  0
    2.3800   -2.4510    0.8520 O   0  0  0  0  0  0  0  0  0  0  0  0
   -0.5690   -0.3380    0.3260 C   0  0  1  0  0  0  0  0  0  0  0  0
   -1.3950   -1.1540    1.3120 C   0  0  0  0  0  0  0  0  0  0  0  0
   -1.8840   -2.4470    1.0010 N   0  0  0  0  0  0  0  0  0  0  0  0
   -1.6590   -0.6790    2.4380 O   0  0  0  0  0  0  0  0  0  0  0  0
   -0.3760    1.0280    0.9270 C   0  0  0  0  0  0  0  0  0  0  0  0
   -0.7560    2.0670    0.1270 O   0  0  0  0  0  0  0  0  0  0  0  0
   -2.0640    2.1160   -0.2560 C   0  0  2  0  0  0  0  0  0  0  0  0
   -2.8130    2.8280    0.6760 O   0  0  0  0  0  0  0  0  0  0  0  0
   -2.6040    0.7290   -0.4210 C   0  0  1  0  0  0  0  0  0  0  0  0
   -3.6930    0.6540   -1.2620 O   0  0  0  0  0  0  0  0  0  0  0  0
   -1.4470   -0.1490   -0.8950 C   0  0  2  0  0  0  0  0  0  0  0  0
   -1.9730   -1.3510   -1.3510 O   0  0  0  0  0  0  0  0  0  0  0  0
  1  2  1  0
  2  3  1  0
  3  4  1  0
  4  5  1  0
  5  6  1  6
  5  7  1  0
  5  9  1  0
  7  8  1  0
  9 10  1  1
  9 13  1  0
  9 19  1  0
 10 11  1  0
 10 12  2  0
 13 14  1  0
 14 15  1  0
 15 16  1  1
 15 17  1  0
 17 18  1  6
 17 19  1  0
 19 20  1  1
M  END
