
     RDKit          3D

 20 20  0  0  0  0  0  0  0  0999 V2000
    0.6770   -2.3940   -1.7280 N   0  0  0  0  0  0  0  0  0  0  0  0
    0.7120   -1.0680   -1.0120 C   0  0  2  0  0  0  0  0  0  0  0  0
    1.5380   -1.3490    0.0730 O   0  0  0  0  0  0  0  0  0  0  0  0
    2.7720   -0.7670   -0.0660 C   0  0  0  0  0  0  0  0  0  0  0  0
    2.8310    0.7240   -0.0290 C   0  0  2  0  0  0  0  0  0  0  0  0
    4.1880    1.0630   -0.3370 O   0  0  0  0  0  0  0  0  0  0  0  0
    2.7020    1.2450    1.4110 C   0  0  0  0  0  0  0  0  0  0  0  0
    2.9270    2.6160    1.3540 O   0  0  0  0  0  0  0  0  0  0  0  0
   -0.7330   -0.8210   -0.6910 C   0  0  1  0  0  0  0  0  0  0  0  0
   -1.1940   -1.8680    0.2630 C   0  0  0  0  0  0  0  0  0  0  0  0
   -0.4980   -1.7600    1.4610 O   0  0  0  0  0  0  0  0  0  0  0  0
   -0.8470    0.5740   -0.1020 C   0  0  0  0  0  0  0  0  0  0  0  0
   -2.1370    0.7760    0.6410 C   0  0  1  0  0  0  0  0  0  0  0  0
   -2.0400    2.1230    1.3400 C   0  0  0  0  0  0  0  0  0  0  0  0
   -0.9840    2.1710    2.2390 O   0  0  0  0  0  0  0  0  0  0  0  0
   -3.2390    0.8600   -0.2360 O   0  0  0  0  0  0  0  0  0  0  0  0
   -3.5260    0.0030   -1.2760 C   0  0  0  0  0  0  0  0  0  0  0  0
   -4.6850    0.1310   -1.7400 O   0  0  0  0  0  0  0  0  0  0  0  0
   -2.7150   -1.0050   -1.9060 C   0  0  0  0  0  0  0  0  0  0  0  0
   -1.3750   -0.8540   -1.9260 O   0  0  0  0  0  0  0  0  0  0  0  0
  2  1  1  6
  2  3  1  0
  2  9  1  0
  3  4  1  0
  4  5  1  0
  5  6  1  1
  5  7  1  0
  7  8  1  0
  9 10  1  1
  9 12  1  0
  9 20  1  0
 10 11  1  0
 12 13  1  0
 13 14  1  6
 13 16  1  0
 14 15  1  0
 16 17  1  0
 17 18  2  0
 17 19  1  0
 19 20  1  0
M  END
