
     RDKit          3D

 20 22  0  0  0  0  0  0  0  0999 V2000
    5.9200    1.4090    0.9070 C   0  0  0  0  0  0  0  0  0  0  0  0
    4.5180    1.5330    0.9400 O   0  0  0  0  0  0  0  0  0  0  0  0
    3.6800    0.4870    0.4980 C   0  0  0  0  0  0  0  0  0  0  0  0
    2.3180    0.6250    0.5370 C   0  0  0  0  0  0  0  0  0  0  0  0
    1.4680   -0.3950    0.1030 C   0  0  0  0  0  0  0  0  0  0  0  0
    0.0650   -0.2420    0.1680 N   0  0  0  0  0  0  0  0  0  0  0  0
   -0.8900   -1.0070   -0.4550 C   0  0  0  0  0  0  0  0  0  0  0  0
   -0.5060   -2.0000   -1.1850 O   0  0  0  0  0  0  0  0  0  0  0  0
   -2.3510   -0.8650   -0.4090 C   0  0  0  0  0  0  0  0  0  0  0  0
   -3.1360   -2.0280   -0.4730 C   0  0  0  0  0  0  0  0  0  0  0  0
   -4.4980   -1.9830   -0.3700 C   0  0  0  0  0  0  0  0  0  0  0  0
   -5.1330   -0.8180   -0.2030 N   0  0  0  0  0  0  0  0  0  0  0  0
   -4.4310    0.3240   -0.1360 C   0  0  0  0  0  0  0  0  0  0  0  0
   -4.8290    1.6550    0.0070 C   0  0  0  0  0  0  0  0  0  0  0  0
   -3.6860    2.3940   -0.0150 C   0  0  0  0  0  0  0  0  0  0  0  0
   -2.5980    1.5790   -0.1650 N   0  0  0  0  0  0  0  0  0  0  0  0
   -3.0340    0.3090   -0.2390 C   0  0  0  0  0  0  0  0  0  0  0  0
    2.0890   -1.5250   -0.3560 C   0  0  0  0  0  0  0  0  0  0  0  0
    3.4870   -1.6060   -0.3720 C   0  0  0  0  0  0  0  0  0  0  0  0
    4.2770   -0.6300    0.0430 N   0  0  0  0  0  0  0  0  0  0  0  0
  1  2  1  0
  2  3  1  0
  3  4  2  0
  3 20  1  0
  4  5  1  0
  5  6  1  0
  5 18  2  0
  6  7  1  0
  7  8  2  0
  7  9  1  0
  9 10  2  0
  9 17  1  0
 10 11  1  0
 11 12  2  0
 12 13  1  0
 13 14  1  0
 13 17  2  0
 14 15  2  0
 15 16  1  0
 16 17  1  0
 18 19  1  0
 19 20  2  0
M  END
