
     RDKit          3D

 13 14  0  0  0  0  0  0  0  0999 V2000
    2.7290    0.4560    2.3270 O   0  0  0  0  0  0  0  0  0  0  0  0
    2.7500   -0.4980    1.4240 O   0  0  0  0  0  0  0  0  0  0  0  0
    1.8310   -0.1820    0.4300 C   0  0  1  0  0  0  0  0  0  0  0  0
    2.1070    1.0080   -0.1930 F   0  0  0  0  0  0  0  0  0  0  0  0
    1.7610   -1.2540   -0.6370 C   0  0  0  0  0  0  0  0  0  0  0  0
    0.4480   -0.8620   -1.3280 C   0  0  0  0  0  0  0  0  0  0  0  0
   -0.2680   -0.1650   -0.2210 C   0  0  1  0  0  0  0  0  0  0  0  0
   -0.7730    1.2300   -0.5280 C   0  0  0  0  0  0  0  0  0  0  0  0
   -1.9510    0.8840    0.3790 C   0  0  2  0  0  0  0  0  0  0  0  0
   -1.5880    1.1140    1.7010 O   0  0  0  0  0  0  0  0  0  0  0  0
   -1.7090   -0.5610   -0.0100 C   0  0  1  0  0  0  0  0  0  0  0  0
   -2.3270   -0.8080   -1.2490 O   0  0  0  0  0  0  0  0  0  0  0  0
    0.5170   -0.1720    0.9000 O   0  0  0  0  0  0  0  0  0  0  0  0
  1  2  1  0
  2  3  1  0
  3  4  1  6
  3  5  1  0
  3 13  1  0
  5  6  1  0
  7  6  1  6
  7  8  1  0
  7 11  1  0
  7 13  1  0
  8  9  1  0
  9 10  1  1
  9 11  1  0
 11 12  1  6
M  END
