
     RDKit          3D

 26 28  0  0  0  0  0  0  0  0999 V2000
    0.8840    5.4400    1.1160 C   0  0  0  0  0  0  0  0  0  0  0  0
    0.8200    4.0180    0.7980 N   0  0  0  0  0  0  0  0  0  0  0  0
   -0.2990    3.4140    0.9390 C   0  0  0  0  0  0  0  0  0  0  0  0
   -1.4700    4.1190    1.4010 N   0  0  0  0  0  0  0  0  0  0  0  0
   -0.4920    1.9910    0.6540 C   0  0  0  0  0  0  0  0  0  0  0  0
    0.5510    1.1890    0.2010 C   0  0  0  0  0  0  0  0  0  0  0  0
    0.4320   -0.1410   -0.0810 C   0  0  0  0  0  0  0  0  0  0  0  0
    1.4420   -1.0090   -0.5250 N   0  0  0  0  0  0  0  0  0  0  0  0
    2.8100   -0.7140   -0.5690 C   0  0  0  0  0  0  0  0  0  0  0  0
    3.2430    0.3900   -0.1960 O   0  0  0  0  0  0  0  0  0  0  0  0
    3.7890   -1.6470   -1.0400 N   0  0  0  0  0  0  0  0  0  0  0  0
    5.1730   -1.3260   -1.0760 C   0  0  0  0  0  0  0  0  0  0  0  0
    6.1260   -2.2140   -1.5260 C   0  0  0  0  0  0  0  0  0  0  0  0
    7.4360   -1.8780   -1.5480 N   0  0  0  0  0  0  0  0  0  0  0  0
    7.8520   -0.6680   -1.1320 C   0  0  0  0  0  0  0  0  0  0  0  0
    6.9060    0.1840   -0.6960 N   0  0  0  0  0  0  0  0  0  0  0  0
    5.6140   -0.1220   -0.6650 N   0  0  0  0  0  0  0  0  0  0  0  0
   -0.8480   -0.6880    0.1150 C   0  0  0  0  0  0  0  0  0  0  0  0
   -1.9190    0.0480    0.5590 C   0  0  0  0  0  0  0  0  0  0  0  0
   -3.1770   -0.5810    0.7230 N   0  0  0  0  0  0  0  0  0  0  0  0
   -3.4870   -1.9270    0.3650 C   0  0  1  0  0  0  0  0  0  0  0  0
   -4.9300   -2.2410    0.7930 C   0  0  0  0  0  0  0  0  0  0  0  0
   -5.2760   -3.3820   -0.1060 C   0  0  0  0  0  0  0  0  0  0  0  0
   -4.4660   -3.2830   -1.2800 N   0  0  0  0  0  0  0  0  0  0  0  0
   -3.6250   -2.1110   -1.1320 C   0  0  0  0  0  0  0  0  0  0  0  0
   -1.7190    1.3830    0.8220 C   0  0  0  0  0  0  0  0  0  0  0  0
  1  2  1  0
  2  3  2  3
  3  4  1  0
  3  5  1  0
  5  6  2  0
  5 26  1  0
  6  7  1  0
  7  8  1  0
  7 18  2  0
  8  9  1  0
  9 10  2  0
  9 11  1  0
 11 12  1  0
 12 13  2  0
 12 17  1  0
 13 14  1  0
 14 15  2  0
 15 16  1  0
 16 17  2  0
 18 19  1  0
 19 20  1  0
 19 26  2  0
 21 20  1  6
 21 22  1  0
 21 25  1  0
 22 23  1  0
 23 24  1  0
 24 25  1  0
M  CHG  1   2   1
M  END
