
     RDKit          3D

 26 28  0  0  0  0  0  0  0  0999 V2000
   -6.2070   -1.1870    1.4120 C   0  0  0  0  0  0  0  0  0  0  0  0
   -4.8200   -0.7670    1.6210 O   0  0  0  0  0  0  0  0  0  0  0  0
   -3.9950   -0.9650    0.4460 C   0  0  0  0  0  0  0  0  0  0  0  0
   -4.5160   -1.5550   -0.6400 N   0  0  0  0  0  0  0  0  0  0  0  0
   -3.6970   -1.7400   -1.6940 C   0  0  0  0  0  0  0  0  0  0  0  0
   -2.4440   -1.3470   -1.6330 N   0  0  0  0  0  0  0  0  0  0  0  0
   -1.8180   -0.7500   -0.6310 C   0  0  0  0  0  0  0  0  0  0  0  0
   -0.4820   -0.2680   -0.6230 N   0  0  0  0  0  0  0  0  0  0  0  0
    0.4060   -0.4940    0.3440 N   0  0  0  0  0  0  0  0  0  0  0  0
    1.5550    0.2030    0.1600 C   0  0  0  0  0  0  0  0  0  0  0  0
    2.7870    0.1180    0.9270 C   0  0  1  0  0  0  0  0  0  0  0  0
    3.9610   -0.3410    0.0820 C   0  0  0  0  0  0  0  0  0  0  0  0
    3.2490    1.4160    1.5930 C   0  0  0  0  0  0  0  0  0  0  0  0
    4.4460    0.8470    2.3290 C   0  0  0  0  0  0  0  0  0  0  0  0
    5.6090    1.3280    2.3790 N   0  0  0  0  0  0  0  0  0  0  0  0
    3.9160   -0.3570    2.8730 N   0  0  0  0  0  0  0  0  0  0  0  0
    2.7340   -0.7400    2.1300 C   0  0  0  0  0  0  0  0  0  0  0  0
    1.9350   -1.5910    2.4990 O   0  0  0  0  0  0  0  0  0  0  0  0
    1.3250    0.8920   -0.9900 C   0  0  0  0  0  0  0  0  0  0  0  0
    2.2650    1.7750   -1.6810 C   0  0  0  0  0  0  0  0  0  0  0  0
    3.0150    2.4700   -2.2440 N   0  0  0  0  0  0  0  0  0  0  0  0
    0.0750    0.6090   -1.4990 C   0  0  0  0  0  0  0  0  0  0  0  0
   -0.5200    1.2460   -2.7250 C   0  0  0  0  0  0  0  0  0  0  0  0
   -0.9600    0.0750   -3.5710 N   0  0  0  0  0  0  0  0  0  0  0  0
   -2.6770   -0.5480    0.5130 C   0  0  0  0  0  0  0  0  0  0  0  0
   -2.1920    0.1150    1.6470 N   0  0  0  0  0  0  0  0  0  0  0  0
  1  2  1  0
  2  3  1  0
  3  4  2  0
  3 25  1  0
  4  5  1  0
  5  6  2  0
  6  7  1  0
  7  8  1  0
  7 25  2  0
  8  9  1  0
  8 22  1  0
  9 10  2  0
 10 11  1  0
 10 19  1  0
 11 12  1  6
 11 13  1  0
 11 17  1  0
 13 14  1  0
 14 15  2  0
 14 16  1  0
 16 17  1  0
 17 18  2  0
 19 20  1  0
 19 22  2  0
 20 21  3  0
 22 23  1  0
 23 24  1  0
 25 26  1  0
M  CHG  1  24   1
M  END
