
     RDKit          3D

 26 28  0  0  0  0  0  0  0  0999 V2000
    3.5890    1.4030    2.9580 C   0  0  0  0  0  0  0  0  0  0  0  0
    4.2950    0.1210    2.6910 C   0  0  0  0  0  0  0  0  0  0  0  0
    5.1600   -0.4370    3.5450 N   0  0  0  0  0  0  0  0  0  0  0  0
    5.6170   -1.5460    3.0450 N   0  0  0  0  0  0  0  0  0  0  0  0
    5.0100   -1.6860    1.8290 C   0  0  0  0  0  0  0  0  0  0  0  0
    4.1820   -0.6730    1.5680 N   0  0  0  0  0  0  0  0  0  0  0  0
    3.2960   -0.4100    0.5250 N   0  0  0  0  0  0  0  0  0  0  0  0
    3.3190   -1.0250   -0.7320 C   0  0  0  0  0  0  0  0  0  0  0  0
    4.4420   -1.6980   -1.1450 C   0  0  0  0  0  0  0  0  0  0  0  0
    4.4510   -2.3630   -2.3620 C   0  0  0  0  0  0  0  0  0  0  0  0
    3.3280   -2.3380   -3.1480 C   0  0  0  0  0  0  0  0  0  0  0  0
    2.1850   -1.6500   -2.7280 C   0  0  0  0  0  0  0  0  0  0  0  0
    2.1630   -0.9900   -1.5250 C   0  0  0  0  0  0  0  0  0  0  0  0
    1.0320   -0.3130   -1.0190 N   0  0  0  0  0  0  0  0  0  0  0  0
   -0.1870   -0.0590   -1.7020 C   0  0  0  0  0  0  0  0  0  0  0  0
   -0.3220   -0.4520   -2.8760 O   0  0  0  0  0  0  0  0  0  0  0  0
   -1.3200    0.6760   -1.0350 C   0  0  2  0  0  0  0  0  0  0  0  0
   -1.6950   -0.1710    0.1740 C   0  0  0  0  0  0  0  0  0  0  0  0
   -2.7910    0.4540    0.9570 C   0  0  0  0  0  0  0  0  0  0  0  0
   -2.3750    0.8510    2.2700 N   0  0  0  0  0  0  0  0  0  0  0  0
   -4.0330    0.7310    0.7500 N   0  0  0  0  0  0  0  0  0  0  0  0
   -4.9340    0.5560   -0.3530 C   0  0  1  0  0  0  0  0  0  0  0  0
   -6.3040    0.6270    0.1370 N   0  0  0  0  0  0  0  0  0  0  0  0
   -4.7090    1.5690   -1.4520 C   0  0  0  0  0  0  0  0  0  0  0  0
   -3.2350    1.9310   -1.5800 C   0  0  0  0  0  0  0  0  0  0  0  0
   -2.4290    0.8060   -1.9260 N   0  0  0  0  0  0  0  0  0  0  0  0
  1  2  1  0
  2  3  2  0
  2  6  1  0
  3  4  1  0
  4  5  2  0
  5  6  1  0
  6  7  1  0
  7  8  1  0
  8  9  2  0
  8 13  1  0
  9 10  1  0
 10 11  2  0
 11 12  1  0
 12 13  2  0
 13 14  1  0
 14 15  1  0
 15 16  2  0
 17 15  1  6
 17 18  1  0
 17 26  1  0
 18 19  1  0
 19 20  1  0
 19 21  2  0
 21 22  1  0
 22 23  1  1
 22 24  1  0
 24 25  1  0
 25 26  1  0
M  CHG  1  23   1
M  END
