
     RDKit          3D

 26 27  0  0  0  0  0  0  0  0999 V2000
    1.2900   -1.8180    0.0500 C   0  0  0  0  0  0  0  0  0  0  0  0
    1.9420   -0.4870    0.1920 C   0  0  0  0  0  0  0  0  0  0  0  0
    1.1720    0.5140    0.4980 C   0  0  0  0  0  0  0  0  0  0  0  0
   -0.2320    0.4080    0.6850 C   0  0  0  0  0  0  0  0  0  0  0  0
   -1.2110   -0.6170    0.3630 C   0  0  0  0  0  0  0  0  0  0  0  0
   -1.5730   -0.5470   -1.0610 N   0  0  0  0  0  0  0  0  0  0  0  0
   -2.0180   -1.8130   -1.5760 C   0  0  2  0  0  0  0  0  0  0  0  0
   -1.3190   -2.1380   -2.9000 C   0  0  0  0  0  0  0  0  0  0  0  0
   -3.5230   -1.8170   -1.8560 C   0  0  0  0  0  0  0  0  0  0  0  0
   -0.8350    1.5320    1.1340 N   0  0  0  0  0  0  0  0  0  0  0  0
   -2.1870    1.6580    1.3880 C   0  0  0  0  0  0  0  0  0  0  0  0
   -3.1360    2.2300    0.5730 C   0  0  0  0  0  0  0  0  0  0  0  0
   -4.3270    2.1630    1.1970 N   0  0  0  0  0  0  0  0  0  0  0  0
   -4.1590    1.5630    2.3860 C   0  0  0  0  0  0  0  0  0  0  0  0
   -5.2830    1.3220    3.3480 C   0  0  0  0  0  0  0  0  0  0  0  0
   -2.8720    1.2610    2.4990 N   0  0  0  0  0  0  0  0  0  0  0  0
    1.6770    1.9190    0.7110 C   0  0  0  0  0  0  0  0  0  0  0  0
    0.8200    2.7920    1.0050 O   0  0  0  0  0  0  0  0  0  0  0  0
    3.0090    2.4070    0.6260 N   0  0  0  0  0  0  0  0  0  0  0  0
    4.0450    1.7420   -0.0160 N   0  0  0  0  0  0  0  0  0  0  0  0
    4.2540    0.2660   -0.0680 C   0  0  0  0  0  0  0  0  0  0  0  0
    5.4060   -0.2600   -0.6790 N   0  0  0  0  0  0  0  0  0  0  0  0
    6.5130   -0.3130    0.2480 C   0  0  0  0  0  0  0  0  0  0  0  0
    7.7560   -0.6850   -0.1700 N   0  0  0  0  0  0  0  0  0  0  0  0
    6.0970    0.0200    1.4180 O   0  0  0  0  0  0  0  0  0  0  0  0
    3.3190   -0.5150    0.0190 N   0  0  0  0  0  0  0  0  0  0  0  0
  1  2  1  0
  2  3  2  0
  2 26  1  0
  3  4  1  0
  3 17  1  0
  4  5  1  0
  4 10  2  3
  5  6  1  0
  6  7  1  0
  7  8  1  6
  7  9  1  0
 10 11  1  0
 11 12  2  0
 11 16  1  0
 12 13  1  0
 13 14  1  0
 14 15  1  0
 14 16  2  0
 17 18  2  0
 17 19  1  0
 19 20  1  0
 20 21  1  0
 21 22  1  0
 21 26  2  0
 22 23  1  0
 23 24  1  0
 23 25  2  0
M  CHG  1   6   1
M  END
