
     RDKit          3D

 31 34  0  0  0  0  0  0  0  0999 V2000
   -4.9080    1.6610   -1.5700 C   0  0  0  0  0  0  0  0  0  0  0  0
   -5.5250    0.5130   -1.4270 C   0  0  0  0  0  0  0  0  0  0  0  0
   -4.9360   -0.6060   -0.7280 C   0  0  0  0  0  0  0  0  0  0  0  0
   -5.7080   -1.6730   -0.6340 C   0  0  0  0  0  0  0  0  0  0  0  0
   -7.0680   -1.6450   -1.2200 C   0  0  0  0  0  0  0  0  0  0  0  0
   -5.1710   -3.1390    0.0890 Cl  0  0  0  0  0  0  0  0  0  0  0  0
   -3.6740   -0.6280   -0.0930 N   0  0  0  0  0  0  0  0  0  0  0  0
   -3.2520   -1.4860    1.0400 C   0  0  0  0  0  0  0  0  0  0  0  0
   -2.3330   -0.6450    1.9090 C   0  0  2  0  0  0  0  0  0  0  0  0
   -3.1150   -0.3010    3.1600 C   0  0  0  0  0  0  0  0  0  0  0  0
   -2.0690    0.6050    1.1150 C   0  0  1  0  0  0  0  0  0  0  0  0
   -0.7180    1.0720    1.1410 N   0  0  0  0  0  0  0  0  0  0  0  0
   -0.2960    2.2480    1.5690 N   0  0  0  0  0  0  0  0  0  0  0  0
    1.0240    2.3630    1.4480 C   0  0  0  0  0  0  0  0  0  0  0  0
    1.4620    1.1560    0.8970 C   0  0  0  0  0  0  0  0  0  0  0  0
    2.6550    0.6630    0.5420 N   0  0  0  0  0  0  0  0  0  0  0  0
    2.8160   -0.5590    0.0190 C   0  0  0  0  0  0  0  0  0  0  0  0
    4.1370   -1.0300   -0.3480 C   0  0  0  0  0  0  0  0  0  0  0  0
    4.3680   -2.2580   -0.3240 O   0  0  0  0  0  0  0  0  0  0  0  0
    5.1790   -0.1060   -0.7390 C   0  0  0  0  0  0  0  0  0  0  0  0
    5.1400    1.2790   -0.8810 C   0  0  0  0  0  0  0  0  0  0  0  0
    6.3890    1.6990   -1.2780 C   0  0  0  0  0  0  0  0  0  0  0  0
    6.8120    3.0860   -1.5500 C   0  0  0  0  0  0  0  0  0  0  0  0
    7.1520    0.6460   -1.3750 O   0  0  0  0  0  0  0  0  0  0  0  0
    6.4960   -0.4420   -1.0710 C   0  0  0  0  0  0  0  0  0  0  0  0
    7.0220   -1.8290   -1.0650 C   0  0  0  0  0  0  0  0  0  0  0  0
    1.6980   -1.3510   -0.1620 C   0  0  0  0  0  0  0  0  0  0  0  0
    0.4710   -0.8920    0.1830 C   0  0  0  0  0  0  0  0  0  0  0  0
    0.3440    0.3690    0.7170 C   0  0  0  0  0  0  0  0  0  0  0  0
   -2.5110    0.2070   -0.2530 C   0  0  0  0  0  0  0  0  0  0  0  0
   -1.9990    0.5090   -1.3550 O   0  0  0  0  0  0  0  0  0  0  0  0
  1  2  2  0
  2  3  1  0
  3  4  2  3
  3  7  1  0
  4  5  1  0
  4  6  1  0
  7  8  1  0
  7 30  1  0
  8  9  1  0
  9 10  1  1
  9 11  1  0
 11 12  1  6
 11 30  1  0
 12 13  1  0
 12 29  1  0
 13 14  2  0
 14 15  1  0
 15 16  2  0
 15 29  1  0
 16 17  1  0
 17 18  1  0
 17 27  2  0
 18 19  2  0
 18 20  1  0
 20 21  1  0
 20 25  2  0
 21 22  2  0
 22 23  1  0
 22 24  1  0
 24 25  1  0
 25 26  1  0
 27 28  1  0
 28 29  2  0
 30 31  2  0
M  END
