
     RDKit          3D

 31 34  0  0  0  0  0  0  0  0999 V2000
   -5.6520    1.4090    0.6060 C   0  0  0  0  0  0  0  0  0  0  0  0
   -4.9560    0.8010   -0.2610 C   0  0  0  0  0  0  0  0  0  0  0  0
   -4.3740    1.6650   -1.3560 C   0  0  0  0  0  0  0  0  0  0  0  0
   -3.6650    1.1800   -2.4150 C   0  0  0  0  0  0  0  0  0  0  0  0
   -3.8450    1.7700   -3.9970 Cl  0  0  0  0  0  0  0  0  0  0  0  0
   -2.7860    0.0060   -2.4300 C   0  0  0  0  0  0  0  0  0  0  0  0
   -3.3860   -0.6330   -3.4880 C   0  0  0  0  0  0  0  0  0  0  0  0
   -3.7600   -2.0830   -3.3660 C   0  0  0  0  0  0  0  0  0  0  0  0
   -4.2550   -2.3820   -1.8930 C   0  0  0  0  0  0  0  0  0  0  0  0
   -3.9110   -1.3280   -1.0060 N   0  0  0  0  0  0  0  0  0  0  0  0
   -4.8250   -0.7220   -0.0900 C   0  0  0  0  0  0  0  0  0  0  0  0
   -2.5470   -1.4000   -0.5120 C   0  0  0  0  0  0  0  0  0  0  0  0
   -1.7330   -0.5790   -1.5860 C   0  0  2  0  0  0  0  0  0  0  0  0
   -0.9310    0.4170   -0.8040 C   0  0  0  0  0  0  0  0  0  0  0  0
    0.0830   -0.1930    0.0060 N   0  0  0  0  0  0  0  0  0  0  0  0
    1.0370    0.5160    0.7760 C   0  0  0  0  0  0  0  0  0  0  0  0
    1.0490    1.8990    0.7940 C   0  0  0  0  0  0  0  0  0  0  0  0
    0.1260    2.6570    0.0830 O   0  0  0  0  0  0  0  0  0  0  0  0
    0.1310    4.0550    0.0960 C   0  0  0  0  0  0  0  0  0  0  0  0
    2.0000    2.4820    1.5360 N   0  0  0  0  0  0  0  0  0  0  0  0
    2.9260    1.8120    2.2500 C   0  0  0  0  0  0  0  0  0  0  0  0
    2.9390    0.4480    2.2510 N   0  0  0  0  0  0  0  0  0  0  0  0
    3.9270   -0.2460    3.0310 C   0  0  0  0  0  0  0  0  0  0  0  0
    5.1630   -0.5690    2.2780 C   0  0  0  0  0  0  0  0  0  0  0  0
    6.2160    0.2840    2.1180 C   0  0  0  0  0  0  0  0  0  0  0  0
    7.1640   -0.3990    1.3560 C   0  0  0  0  0  0  0  0  0  0  0  0
    6.6190   -1.6340    1.1010 C   0  0  0  0  0  0  0  0  0  0  0  0
    7.2930   -2.7040    0.3120 C   0  0  0  0  0  0  0  0  0  0  0  0
    5.4260   -1.6900    1.6700 O   0  0  0  0  0  0  0  0  0  0  0  0
    1.9920   -0.1560    1.5130 C   0  0  0  0  0  0  0  0  0  0  0  0
    2.0260   -1.4300    1.5300 O   0  0  0  0  0  0  0  0  0  0  0  0
  1  2  2  0
  2  3  1  0
  2 11  1  0
  3  4  2  0
  4  5  1  0
  4  6  1  0
  6  7  2  0
  6 13  1  0
  7  8  1  0
  8  9  1  0
  9 10  1  0
 10 11  1  0
 10 12  1  0
 12 13  1  0
 13 14  1  1
 14 15  1  0
 15 16  1  0
 16 17  2  0
 16 30  1  0
 17 18  1  0
 17 20  1  0
 18 19  1  0
 20 21  2  0
 21 22  1  0
 22 23  1  0
 22 30  1  0
 23 24  1  0
 24 25  2  0
 24 29  1  0
 25 26  1  0
 26 27  2  0
 27 28  1  0
 27 29  1  0
 30 31  2  0
M  END
