
     RDKit          3D

 29 31  0  0  0  0  0  0  0  0999 V2000
    5.6680   -2.1150    1.0220 C   0  0  0  0  0  0  0  0  0  0  0  0
    5.3840   -0.6920    0.7700 C   0  0  0  0  0  0  0  0  0  0  0  0
    6.3440    0.1690    0.9530 O   0  0  0  0  0  0  0  0  0  0  0  0
    6.2450    1.4470    0.7690 C   0  0  0  0  0  0  0  0  0  0  0  0
    7.2330    2.1860    0.9680 O   0  0  0  0  0  0  0  0  0  0  0  0
    5.0570    1.9970    0.3510 C   0  0  0  0  0  0  0  0  0  0  0  0
    4.8900    3.4130    0.1380 C   0  0  0  0  0  0  0  0  0  0  0  0
    4.7690    4.5410   -0.0480 N   0  0  0  0  0  0  0  0  0  0  0  0
    3.9560    1.1470    0.1280 C   0  0  0  0  0  0  0  0  0  0  0  0
    2.6450    1.8210   -0.1900 C   0  0  0  0  0  0  0  0  0  0  0  0
    4.1110   -0.1990    0.3290 C   0  0  0  0  0  0  0  0  0  0  0  0
    3.1220   -1.2060    0.1710 C   0  0  2  0  0  0  0  0  0  0  0  0
    3.2620   -2.0740   -1.1370 C   0  0  0  0  0  0  0  0  0  0  0  0
    1.7080   -1.0600    0.3240 N   0  0  0  0  0  0  0  0  0  0  0  0
    0.9730   -0.7700   -0.8660 C   0  0  0  0  0  0  0  0  0  0  0  0
   -0.4800   -0.6420   -0.5330 C   0  0  0  0  0  0  0  0  0  0  0  0
   -1.1990   -1.7260   -0.1780 N   0  0  0  0  0  0  0  0  0  0  0  0
   -2.5140   -1.6950    0.1060 C   0  0  0  0  0  0  0  0  0  0  0  0
   -3.1850   -0.5040    0.0400 C   0  0  0  0  0  0  0  0  0  0  0  0
   -2.4680    0.6220   -0.3210 C   0  0  0  0  0  0  0  0  0  0  0  0
   -3.1390    1.9190   -0.3980 C   0  0  2  0  0  0  0  0  0  0  0  0
   -2.0410    2.9280   -0.8190 C   0  0  0  0  0  0  0  0  0  0  0  0
   -3.6520    2.4420    0.9290 C   0  0  0  0  0  0  0  0  0  0  0  0
   -4.1300    2.0200   -1.5210 C   0  0  0  0  0  0  0  0  0  0  0  0
   -1.1490    0.5050   -0.5910 N   0  0  0  0  0  0  0  0  0  0  0  0
   -4.6060   -0.4570    0.3280 C   0  0  0  0  0  0  0  0  0  0  0  0
   -4.8870   -1.5000    1.4290 C   0  0  0  0  0  0  0  0  0  0  0  0
   -4.6290   -2.8350    0.7540 C   0  0  0  0  0  0  0  0  0  0  0  0
   -3.1720   -2.9790    0.4920 C   0  0  0  0  0  0  0  0  0  0  0  0
  1  2  1  0
  2  3  1  0
  2 11  2  0
  3  4  1  0
  4  5  2  0
  4  6  1  0
  6  7  1  0
  6  9  2  0
  7  8  3  0
  9 10  1  0
  9 11  1  0
 11 12  1  0
 12 13  1  6
 12 14  1  0
 14 15  1  0
 15 16  1  0
 16 17  2  0
 16 25  1  0
 17 18  1  0
 18 19  2  0
 18 29  1  0
 19 20  1  0
 19 26  1  0
 20 21  1  0
 20 25  2  0
 21 22  1  6
 21 23  1  0
 21 24  1  0
 26 27  1  0
 27 28  1  0
 28 29  1  0
M  END
