
     RDKit          3D

 29 32  0  0  0  0  0  0  0  0999 V2000
    4.9680    1.1630    1.6650 C   0  0  0  0  0  0  0  0  0  0  0  0
    5.2580    1.4580    0.2630 N   0  0  0  0  0  0  0  0  0  0  0  0
    4.3700    0.9430   -0.7210 C   0  0  0  0  0  0  0  0  0  0  0  0
    3.2570    0.1830   -0.3460 C   0  0  0  0  0  0  0  0  0  0  0  0
    2.3890   -0.3200   -1.2900 C   0  0  0  0  0  0  0  0  0  0  0  0
    1.2810   -1.0790   -0.8920 N   0  0  0  0  0  0  0  0  0  0  0  0
    0.2660   -0.5920   -0.2210 C   0  0  0  0  0  0  0  0  0  0  0  0
   -0.7960   -1.5090    0.1120 C   0  0  0  0  0  0  0  0  0  0  0  0
   -1.5220   -1.4090    1.2720 C   0  0  0  0  0  0  0  0  0  0  0  0
   -2.5430   -2.3240    1.5460 C   0  0  0  0  0  0  0  0  0  0  0  0
   -2.8010   -3.3170    0.6330 C   0  0  0  0  0  0  0  0  0  0  0  0
   -2.0900   -3.4100   -0.4970 N   0  0  0  0  0  0  0  0  0  0  0  0
   -1.1030   -2.5250   -0.7610 C   0  0  0  0  0  0  0  0  0  0  0  0
   -0.3530   -2.6610   -2.0090 C   0  0  0  0  0  0  0  0  0  0  0  0
   -3.9220   -4.1480    1.1500 C   0  0  0  0  0  0  0  0  0  0  0  0
   -4.6560   -3.1400    2.0260 C   0  0  0  0  0  0  0  0  0  0  0  0
   -3.4750   -2.4500    2.7100 C   0  0  0  0  0  0  0  0  0  0  0  0
    0.2610    0.7790    0.1330 N   0  0  0  0  0  0  0  0  0  0  0  0
    0.5460    1.1090    1.5120 C   0  0  0  0  0  0  0  0  0  0  0  0
   -0.0100    1.7250   -0.8900 C   0  0  0  0  0  0  0  0  0  0  0  0
   -1.2710    2.4980   -0.8140 C   0  0  1  0  0  0  0  0  0  0  0  0
   -2.5400    1.7380   -0.8280 C   0  0  0  0  0  0  0  0  0  0  0  0
   -3.2970    2.3040    0.3430 C   0  0  0  0  0  0  0  0  0  0  0  0
   -2.4170    3.0010    1.1460 O   0  0  0  0  0  0  0  0  0  0  0  0
   -1.3780    3.4460    0.3450 C   0  0  0  0  0  0  0  0  0  0  0  0
    2.6800   -0.0320   -2.6060 C   0  0  0  0  0  0  0  0  0  0  0  0
    3.7570    0.7060   -3.0000 C   0  0  0  0  0  0  0  0  0  0  0  0
    4.6410    1.2190   -2.0470 C   0  0  0  0  0  0  0  0  0  0  0  0
    5.7010    1.9510   -2.5090 O   0  0  0  0  0  0  0  0  0  0  0  0
  1  2  1  0
  2  3  1  0
  3  4  2  0
  3 28  1  0
  4  5  1  0
  5  6  1  0
  5 26  2  0
  6  7  2  3
  7  8  1  0
  7 18  1  0
  8  9  2  0
  8 13  1  0
  9 10  1  0
 10 11  2  0
 10 17  1  0
 11 12  1  0
 11 15  1  0
 12 13  2  0
 13 14  1  0
 15 16  1  0
 16 17  1  0
 18 19  1  0
 18 20  1  0
 21 20  1  1
 21 22  1  0
 21 25  1  0
 22 23  1  0
 23 24  1  0
 24 25  1  0
 26 27  1  0
 27 28  2  0
 28 29  1  0
M  END
