
     RDKit          3D

 29 32  0  0  0  0  0  0  0  0999 V2000
    3.8600    3.7190   -0.5430 C   0  0  0  0  0  0  0  0  0  0  0  0
    3.0730    2.7340    0.3300 C   0  0  0  0  0  0  0  0  0  0  0  0
    3.8030    1.5030    0.4120 N   0  0  0  0  0  0  0  0  0  0  0  0
    5.1290    1.6360    1.0900 C   0  0  0  0  0  0  0  0  0  0  0  0
    3.4310    0.2030    0.0270 C   0  0  0  0  0  0  0  0  0  0  0  0
    4.4530   -0.5630   -0.5770 C   0  0  0  0  0  0  0  0  0  0  0  0
    4.2910   -1.8740   -0.9110 C   0  0  0  0  0  0  0  0  0  0  0  0
    3.0700   -2.4230   -0.6130 C   0  0  0  0  0  0  0  0  0  0  0  0
    2.9650   -3.7630   -0.8870 N   0  0  0  0  0  0  0  0  0  0  0  0
    1.8550   -4.4080   -0.5750 C   0  0  0  0  0  0  0  0  0  0  0  0
    1.6690   -5.6500   -0.7840 O   0  0  0  0  0  0  0  0  0  0  0  0
    0.8450   -3.7180    0.0000 C   0  0  0  0  0  0  0  0  0  0  0  0
   -0.2500   -4.3120    0.3150 O   0  0  0  0  0  0  0  0  0  0  0  0
    0.9280   -2.3570    0.2760 N   0  0  0  0  0  0  0  0  0  0  0  0
   -0.3140   -1.8120    0.7390 C   0  0  0  0  0  0  0  0  0  0  0  0
   -0.8770   -2.3020    1.9120 C   0  0  0  0  0  0  0  0  0  0  0  0
   -2.1700   -2.0680    2.2590 C   0  0  0  0  0  0  0  0  0  0  0  0
   -2.9620   -1.2900    1.3960 C   0  0  0  0  0  0  0  0  0  0  0  0
   -2.4550   -0.7720    0.2570 C   0  0  0  0  0  0  0  0  0  0  0  0
   -3.1960   -0.0010   -0.7470 C   0  0  0  0  0  0  0  0  0  0  0  0
   -3.6030    1.2620   -0.3310 N   0  0  0  0  0  0  0  0  0  0  0  0
   -4.6000    1.5080    0.5970 C   0  0  0  0  0  0  0  0  0  0  0  0
   -5.8830    1.6330   -0.2670 C   0  0  0  0  0  0  0  0  0  0  0  0
   -5.3490    1.7390   -1.7030 C   0  0  0  0  0  0  0  0  0  0  0  0
   -3.8940    2.0900   -1.4780 C   0  0  0  0  0  0  0  0  0  0  0  0
   -1.0920   -1.0480   -0.0810 C   0  0  0  0  0  0  0  0  0  0  0  0
   -0.5340   -0.4320   -1.2810 C   0  0  0  0  0  0  0  0  0  0  0  0
    2.0400   -1.7330   -0.0250 C   0  0  0  0  0  0  0  0  0  0  0  0
    2.2030   -0.3820    0.3090 C   0  0  0  0  0  0  0  0  0  0  0  0
  1  2  1  0
  2  3  1  0
  3  4  1  0
  3  5  1  0
  5  6  2  0
  5 29  1  0
  6  7  1  0
  7  8  2  0
  8  9  1  0
  8 28  1  0
  9 10  1  0
 10 11  2  0
 10 12  1  0
 12 13  2  0
 12 14  1  0
 14 15  1  0
 14 28  1  0
 15 16  2  0
 15 26  1  0
 16 17  1  0
 17 18  2  0
 18 19  1  0
 19 20  1  0
 19 26  2  0
 20 21  1  0
 21 22  1  0
 21 25  1  0
 22 23  1  0
 23 24  1  0
 24 25  1  0
 26 27  1  0
 28 29  2  0
M  END
