
     RDKit          3D

 25 27  0  0  0  0  0  0  0  0999 V2000
    6.6230    0.9980    0.2680 N   0  0  0  0  0  0  0  0  0  0  0  0
    5.7280   -0.0470    0.6730 C   0  0  0  0  0  0  0  0  0  0  0  0
    6.0410   -0.8890    1.7640 N   0  0  0  0  0  0  0  0  0  0  0  0
    4.6310   -0.1900    0.0050 N   0  0  0  0  0  0  0  0  0  0  0  0
    3.7430   -1.2220    0.4010 C   0  0  0  0  0  0  0  0  0  0  0  0
    4.2170   -2.3010    0.8390 O   0  0  0  0  0  0  0  0  0  0  0  0
    2.3170   -0.9990    0.2890 C   0  0  0  0  0  0  0  0  0  0  0  0
    1.8160    0.1520   -0.1780 N   0  0  0  0  0  0  0  0  0  0  0  0
    0.4750    0.3900   -0.2950 C   0  0  0  0  0  0  0  0  0  0  0  0
    0.0200    1.6230   -0.8770 C   0  0  0  0  0  0  0  0  0  0  0  0
   -1.1850    2.0820   -1.3260 C   0  0  0  0  0  0  0  0  0  0  0  0
   -1.0380    3.3910   -1.8070 C   0  0  0  0  0  0  0  0  0  0  0  0
    0.2970    3.6580   -1.6140 C   0  0  0  0  0  0  0  0  0  0  0  0
    0.8710    2.6370   -1.0850 O   0  0  0  0  0  0  0  0  0  0  0  0
   -0.3590   -0.6010    0.0880 C   0  0  0  0  0  0  0  0  0  0  0  0
   -1.7500   -0.5110    0.1100 N   0  0  0  0  0  0  0  0  0  0  0  0
   -2.3320    0.2790    1.1700 C   0  0  0  0  0  0  0  0  0  0  0  0
   -3.6600    0.8650    1.0580 C   0  0  0  0  0  0  0  0  0  0  0  0
   -4.9350    0.0590    1.1960 C   0  0  0  0  0  0  0  0  0  0  0  0
   -5.1670   -0.8670   -0.0570 C   0  0  0  0  0  0  0  0  0  0  0  0
   -3.8920   -1.1460   -0.5730 C   0  0  0  0  0  0  0  0  0  0  0  0
   -2.5130   -1.2480   -0.9120 C   0  0  0  0  0  0  0  0  0  0  0  0
    0.1520   -1.8000    0.5730 N   0  0  0  0  0  0  0  0  0  0  0  0
    1.4590   -1.9980    0.6720 C   0  0  0  0  0  0  0  0  0  0  0  0
    1.9760   -3.2130    1.1630 N   0  0  0  0  0  0  0  0  0  0  0  0
  1  2  1  0
  2  3  1  0
  2  4  2  3
  4  5  1  0
  5  6  2  0
  5  7  1  0
  7  8  2  0
  7 24  1  0
  8  9  1  0
  9 10  1  0
  9 15  2  0
 10 11  2  0
 10 14  1  0
 11 12  1  0
 12 13  2  0
 13 14  1  0
 15 16  1  0
 15 23  1  0
 16 17  1  0
 16 22  1  0
 17 18  1  0
 18 19  1  0
 19 20  1  0
 20 21  1  0
 21 22  1  0
 23 24  2  0
 24 25  1  0
M  CHG  1   4   1
M  END
