
     RDKit          3D

 25 27  0  0  0  0  0  0  0  0999 V2000
   -5.5170    0.7640   -1.4900 C   0  0  0  0  0  0  0  0  0  0  0  0
   -4.0260    0.6450   -1.2170 C   0  0  0  0  0  0  0  0  0  0  0  0
   -3.2090    1.3260   -2.0070 C   0  0  0  0  0  0  0  0  0  0  0  0
   -1.7750    1.2290   -1.8070 C   0  0  0  0  0  0  0  0  0  0  0  0
   -1.3040    0.4560   -0.8610 C   0  0  0  0  0  0  0  0  0  0  0  0
    0.1190    0.2700   -0.5600 C   0  0  0  0  0  0  0  0  0  0  0  0
    1.0030    1.4310   -0.7290 C   0  0  0  0  0  0  0  0  0  0  0  0
    0.5300   -0.9610   -0.1970 C   0  0  0  0  0  0  0  0  0  0  0  0
    1.9260   -1.1760    0.1090 C   0  0  0  0  0  0  0  0  0  0  0  0
    2.3570   -2.3060    0.4520 O   0  0  0  0  0  0  0  0  0  0  0  0
    2.8660   -0.1600    0.0440 O   0  0  0  0  0  0  0  0  0  0  0  0
    4.2150   -0.3760    0.3420 C   0  0  2  0  0  0  0  0  0  0  0  0
    4.5550    0.4290    1.5750 C   0  0  0  0  0  0  0  0  0  0  0  0
    5.9830    0.2800    2.0200 C   0  0  0  0  0  0  0  0  0  0  0  0
    6.9630    0.1400    0.9060 C   0  0  0  0  0  0  0  0  0  0  0  0
    6.3350    0.6560   -0.3280 C   0  0  0  0  0  0  0  0  0  0  0  0
    6.7600    1.6050   -0.9550 O   0  0  0  0  0  0  0  0  0  0  0  0
    5.1130   -0.0390   -0.8170 C   0  0  0  0  0  0  0  0  0  0  0  0
   -0.4250   -1.9550   -0.1430 O   0  0  0  0  0  0  0  0  0  0  0  0
   -1.7920   -1.7990   -0.5490 C   0  0  0  0  0  0  0  0  0  0  0  0
   -2.2050   -0.4470   -0.0390 C   0  0  2  0  0  0  0  0  0  0  0  0
   -3.5220   -0.0210   -0.0960 N   0  0  2  0  0  0  0  0  0  0  0  0
   -4.4580   -0.8560    0.6390 C   0  0  2  0  0  0  0  0  0  0  0  0
   -5.5980   -0.0110    1.1920 C   0  0  0  0  0  0  0  0  0  0  0  0
   -3.7120   -1.2840    1.9200 C   0  0  0  0  0  0  0  0  0  0  0  0
  1  2  1  0
  2  3  2  0
 22  2  1  6
  3  4  1  0
  4  5  2  0
  5  6  1  0
  5 21  1  0
  6  7  1  0
  6  8  2  0
  8  9  1  0
  8 19  1  0
  9 10  2  0
  9 11  1  0
 12 11  1  6
 12 13  1  0
 12 18  1  0
 13 14  1  0
 14 15  1  0
 15 16  1  0
 16 17  2  0
 16 18  1  0
 19 20  1  0
 21 20  1  6
 21 22  1  0
 22 23  1  0
 23 24  1  1
 23 25  1  0
M  CHG  1  22   1
M  END
