
     RDKit          3D

 24 27  0  0  0  0  0  0  0  0999 V2000
    3.9000   -2.8700    0.8670 C   0  0  0  0  0  0  0  0  0  0  0  0
    3.6030   -1.5830    1.4020 O   0  0  0  0  0  0  0  0  0  0  0  0
    3.1920   -0.6140    0.5260 C   0  0  0  0  0  0  0  0  0  0  0  0
    1.8730   -0.4530    0.2510 C   0  0  0  0  0  0  0  0  0  0  0  0
    1.4090    0.5030   -0.6200 C   0  0  0  0  0  0  0  0  0  0  0  0
    2.3500    1.3140   -1.2200 C   0  0  0  0  0  0  0  0  0  0  0  0
    3.7110    1.1680   -0.9530 C   0  0  0  0  0  0  0  0  0  0  0  0
    4.1340    0.1900   -0.0680 C   0  0  0  0  0  0  0  0  0  0  0  0
    5.4730    0.0700    0.1740 O   0  0  0  0  0  0  0  0  0  0  0  0
    6.4250    1.0930   -0.0550 C   0  0  0  0  0  0  0  0  0  0  0  0
    5.9660    2.1450   -1.0040 C   0  0  0  0  0  0  0  0  0  0  0  0
    4.6880    1.9560   -1.5290 O   0  0  0  0  0  0  0  0  0  0  0  0
    0.0010    0.7070   -0.9420 C   0  0  0  0  0  0  0  0  0  0  0  0
   -0.8840   -0.2770   -0.3790 N   0  0  2  0  0  0  0  0  0  0  0  0
   -1.5880    0.2070    0.8010 C   0  0  0  0  0  0  0  0  0  0  0  0
   -3.0280    0.4050    0.5380 C   0  0  0  0  0  0  0  0  0  0  0  0
   -3.5520    1.6010    0.6860 C   0  0  0  0  0  0  0  0  0  0  0  0
   -4.9840    1.9000    0.4470 C   0  0  0  0  0  0  0  0  0  0  0  0
   -5.8380    0.6580    0.4540 C   0  0  0  0  0  0  0  0  0  0  0  0
   -5.1710   -0.4570   -0.3180 C   0  0  2  0  0  0  0  0  0  0  0  0
   -5.9020   -1.7480   -0.1600 C   0  0  0  0  0  0  0  0  0  0  0  0
   -3.8430   -0.6340    0.1400 O   0  0  0  0  0  0  0  0  0  0  0  0
   -0.2510   -1.5240   -0.0700 C   0  0  0  0  0  0  0  0  0  0  0  0
    0.8850   -1.3430    0.9140 C   0  0  0  0  0  0  0  0  0  0  0  0
  1  2  1  0
  2  3  1  0
  3  4  2  0
  3  8  1  0
  4  5  1  0
  4 24  1  0
  5  6  2  0
  5 13  1  0
  6  7  1  0
  7  8  2  0
  7 12  1  0
  8  9  1  0
  9 10  1  0
 10 11  1  0
 11 12  1  0
 13 14  1  0
 14 15  1  1
 14 23  1  0
 15 16  1  0
 16 17  2  0
 16 22  1  0
 17 18  1  0
 18 19  1  0
 19 20  1  0
 20 21  1  1
 20 22  1  0
 23 24  1  0
M  CHG  1  14   1
M  END
