
     RDKit          3D

 20 21  0  0  0  0  0  0  0  0999 V2000
    5.2730    1.5590   -0.9930 C   0  0  0  0  0  0  0  0  0  0  0  0
    5.1690    0.1910   -0.9830 O   0  0  0  0  0  0  0  0  0  0  0  0
    5.0780   -0.3290    0.2850 C   0  0  0  0  0  0  0  0  0  0  0  0
    3.8930    0.1310    1.0940 C   0  0  0  0  0  0  0  0  0  0  0  0
    2.7230   -0.2400    0.3990 O   0  0  0  0  0  0  0  0  0  0  0  0
    1.4430    0.0160    0.8390 C   0  0  0  0  0  0  0  0  0  0  0  0
    1.3090    0.6220    1.9370 O   0  0  0  0  0  0  0  0  0  0  0  0
    0.2700   -0.4170    0.0310 C   0  0  1  0  0  0  0  0  0  0  0  0
    0.7890   -1.0720   -1.1560 N   0  0  0  0  0  0  0  0  0  0  0  0
   -0.4870   -1.3850    0.9110 C   0  0  0  0  0  0  0  0  0  0  0  0
   -1.0820   -2.4730    0.0590 C   0  0  0  0  0  0  0  0  0  0  0  0
   -2.2970   -1.9200   -0.6160 C   0  0  0  0  0  0  0  0  0  0  0  0
   -2.5870   -0.5800   -0.1700 N   0  0  0  0  0  0  0  0  0  0  0  0
   -3.6550   -0.3320    0.7630 C   0  0  0  0  0  0  0  0  0  0  0  0
   -4.1970   -1.1800    1.5050 O   0  0  0  0  0  0  0  0  0  0  0  0
   -3.9840    1.1360    0.6680 C   0  0  2  0  0  0  0  0  0  0  0  0
   -4.8770    1.3240   -0.4390 N   0  0  0  0  0  0  0  0  0  0  0  0
   -2.6130    1.7000    0.4240 C   0  0  0  0  0  0  0  0  0  0  0  0
   -1.9760    0.6520   -0.5000 C   0  0  1  0  0  0  0  0  0  0  0  0
   -0.5130    0.7730   -0.3790 C   0  0  0  0  0  0  0  0  0  0  0  0
  1  2  1  0
  2  3  1  0
  3  4  1  0
  4  5  1  0
  5  6  1  0
  6  7  2  0
  6  8  1  0
  8  9  1  6
  8 10  1  0
  8 20  1  0
 10 11  1  0
 11 12  1  0
 12 13  1  0
 13 14  1  0
 13 19  1  0
 14 15  2  0
 14 16  1  0
 16 17  1  6
 16 18  1  0
 19 18  1  1
 19 20  1  0
M  CHG  2   9   1  17   1
M  END
