
     RDKit          3D

 20 21  0  0  0  0  0  0  0  0999 V2000
    5.9450   -1.0550    0.6960 N   0  0  0  0  0  0  0  0  0  0  0  0
    4.9840   -0.3160   -0.1170 C   0  0  0  0  0  0  0  0  0  0  0  0
    3.6230   -0.5340    0.4860 C   0  0  0  0  0  0  0  0  0  0  0  0
    2.5630    0.1940   -0.2940 C   0  0  0  0  0  0  0  0  0  0  0  0
    1.2270    0.0100    0.2800 N   0  0  0  0  0  0  0  0  0  0  0  0
    0.3500    0.7520   -0.6200 C   0  0  0  0  0  0  0  0  0  0  0  0
   -1.0620    0.7610   -0.2190 C   0  0  0  0  0  0  0  0  0  0  0  0
   -1.8210    1.8230    0.0110 C   0  0  0  0  0  0  0  0  0  0  0  0
   -1.4930    3.2330   -0.0620 C   0  0  0  0  0  0  0  0  0  0  0  0
   -2.4710    4.2440    0.2280 N   0  0  0  0  0  0  0  0  0  0  0  0
   -0.3680    3.6390   -0.3770 O   0  0  0  0  0  0  0  0  0  0  0  0
   -3.1130    1.4090    0.3710 O   0  0  0  0  0  0  0  0  0  0  0  0
   -2.9940    0.1060    0.8960 C   0  0  1  0  0  0  0  0  0  0  0  0
   -4.2610   -0.6800    0.8310 C   0  0  0  0  0  0  0  0  0  0  0  0
   -4.0980   -2.1260    0.5340 C   0  0  0  0  0  0  0  0  0  0  0  0
   -2.8430   -2.5230    0.0890 O   0  0  0  0  0  0  0  0  0  0  0  0
   -1.8270   -1.6650   -0.3570 C   0  0  0  0  0  0  0  0  0  0  0  0
   -0.7590   -2.1810   -1.2030 C   0  0  0  0  0  0  0  0  0  0  0  0
   -1.4260   -2.6840   -2.3690 O   0  0  0  0  0  0  0  0  0  0  0  0
   -1.9180   -0.4170    0.0340 C   0  0  0  0  0  0  0  0  0  0  0  0
  1  2  1  0
  2  3  1  0
  3  4  1  0
  4  5  1  0
  5  6  1  0
  6  7  1  0
  7  8  2  0
  7 20  1  0
  8  9  1  0
  8 12  1  0
  9 10  1  0
  9 11  2  0
 12 13  1  0
 13 14  1  6
 13 20  1  0
 14 15  1  0
 15 16  1  0
 16 17  1  0
 17 18  1  0
 17 20  2  0
 18 19  1  0
M  CHG  2   1   1  10   1
M  END
