
     RDKit          3D

  9 10  0  0  0  0  0  0  0  0999 V2000
   -2.2470    1.0250    0.0020 N   0  0  0  0  0  0  0  0  0  0  0  0
   -0.9220    0.4430    0.0000 C   0  0  0  0  0  0  0  0  0  0  0  0
    0.1980    1.2370    0.0650 C   0  0  0  0  0  0  0  0  0  0  0  0
    1.4540    0.6760    0.0630 C   0  0  0  0  0  0  0  0  0  0  0  0
    1.6160   -0.7140   -0.0050 C   0  0  0  0  0  0  0  0  0  0  0  0
    0.5090   -1.5050   -0.0690 C   0  0  0  0  0  0  0  0  0  0  0  0
   -0.7610   -0.9200   -0.0660 C   0  0  0  0  0  0  0  0  0  0  0  0
   -1.8840   -1.7580   -0.1330 O   0  0  0  0  0  0  0  0  0  0  0  0
    2.8500    0.1140    0.0640 C   0  0  0  0  0  0  0  0  0  0  0  0
  1  2  1  0
  2  3  2  0
  2  7  1  0
  3  4  1  0
  4  5  2  0
  4  9  1  0
  5  6  1  0
  5  9  1  0
  6  7  2  0
  7  8  1  0
M  END
