
     RDKit          3D

  9  8  0  0  0  0  0  0  0  0999 V2000
   -1.2750   -1.2730   -0.7180 C   0  0  0  0  0  0  0  0  0  0  0  0
   -1.1710    0.0490   -0.0030 C   0  0  2  0  0  0  0  0  0  0  0  0
   -2.3250    0.1440    0.9990 C   0  0  0  0  0  0  0  0  0  0  0  0
   -1.3360    1.1660   -1.0090 C   0  0  0  0  0  0  0  0  0  0  0  0
    0.0990    0.1840    0.7930 C   0  0  0  0  0  0  0  0  0  0  0  0
    1.3230    0.0730   -0.0910 C   0  0  2  0  0  0  0  0  0  0  0  0
    1.3180   -1.2180   -0.7400 N   0  0  0  0  0  0  0  0  0  0  0  0
    2.5950    0.2010    0.7080 C   0  0  0  0  0  0  0  0  0  0  0  0
    2.6530    1.4410    1.3620 O   0  0  0  0  0  0  0  0  0  0  0  0
  2  1  1  6
  2  3  1  0
  2  4  1  0
  2  5  1  0
  5  6  1  0
  6  7  1  1
  6  8  1  0
  8  9  1  0
M  END
