
     RDKit          3D

  9  9  0  0  0  0  0  0  0  0999 V2000
    3.0690   -0.2680   -0.8480 N   0  0  0  0  0  0  0  0  0  0  0  0
    2.0620    0.6270   -0.4260 C   0  0  0  0  0  0  0  0  0  0  0  0
    2.0040    1.7690   -0.9490 O   0  0  0  0  0  0  0  0  0  0  0  0
    1.0830    0.2680    0.5940 C   0  0  0  0  0  0  0  0  0  0  0  0
   -0.1100   -0.4690    0.0670 C   0  0  1  0  0  0  0  0  0  0  0  0
   -1.0170   -0.7500    1.2160 C   0  0  0  0  0  0  0  0  0  0  0  0
   -2.2360   -0.2900    0.9640 C   0  0  0  0  0  0  0  0  0  0  0  0
   -2.3160    0.3560   -0.3750 C   0  0  0  0  0  0  0  0  0  0  0  0
   -0.9220    0.2600   -0.9420 C   0  0  0  0  0  0  0  0  0  0  0  0
  1  2  1  0
  2  3  2  0
  2  4  1  0
  5  4  1  1
  5  6  1  0
  5  9  1  0
  6  7  2  0
  7  8  1  0
  8  9  1  0
M  END
