
     RDKit          3D

  9  9  0  0  0  0  0  0  0  0999 V2000
    3.3550    0.8860    1.0760 O   0  0  0  0  0  0  0  0  0  0  0  0
    2.8240    0.5130   -0.1760 C   0  0  0  0  0  0  0  0  0  0  0  0
    1.3540    0.6360   -0.0600 C   0  0  0  0  0  0  0  0  0  0  0  0
    0.6000   -0.4220   -0.2470 C   0  0  0  0  0  0  0  0  0  0  0  0
   -0.8510   -0.3710   -0.1470 C   0  0  0  0  0  0  0  0  0  0  0  0
   -1.7280   -1.3980   -0.3200 C   0  0  0  0  0  0  0  0  0  0  0  0
   -3.0000   -0.9200   -0.1370 C   0  0  0  0  0  0  0  0  0  0  0  0
   -2.8890    0.3950    0.1460 N   0  0  0  0  0  0  0  0  0  0  0  0
   -1.5860    0.7520    0.1450 C   0  0  0  0  0  0  0  0  0  0  0  0
  1  2  1  0
  2  3  1  0
  3  4  2  3
  4  5  1  0
  5  6  1  0
  5  9  2  0
  6  7  2  0
  7  8  1  0
  8  9  1  0
M  END
