
     RDKit          3D

 13 14  0  0  0  0  0  0  0  0999 V2000
    1.2440   -2.2050   -0.4680 C   0  0  0  0  0  0  0  0  0  0  0  0
    1.6360   -1.0050   -0.1010 C   0  0  0  0  0  0  0  0  0  0  0  0
    3.0300   -0.7000    0.2360 C   0  0  0  0  0  0  0  0  0  0  0  0
    3.0530    0.2790    1.2110 O   0  0  0  0  0  0  0  0  0  0  0  0
    2.5980    1.4670    0.6270 C   0  0  0  0  0  0  0  0  0  0  0  0
    1.1420    1.2910    0.3390 C   0  0  0  0  0  0  0  0  0  0  0  0
    0.6700    0.1120   -0.0110 C   0  0  0  0  0  0  0  0  0  0  0  0
   -0.6900   -0.0840   -0.2870 N   0  0  0  0  0  0  0  0  0  0  0  0
   -1.4140    0.6360   -1.3370 C   0  0  0  0  0  0  0  0  0  0  0  0
   -2.5900    1.3130   -0.6540 C   0  0  0  0  0  0  0  0  0  0  0  0
   -2.6210    1.1000    0.7030 O   0  0  0  0  0  0  0  0  0  0  0  0
   -2.6510   -0.2250    1.0740 C   0  0  0  0  0  0  0  0  0  0  0  0
   -1.5280   -1.0380    0.4570 C   0  0  0  0  0  0  0  0  0  0  0  0
  1  2  2  0
  2  3  1  0
  2  7  1  0
  3  4  1  0
  4  5  1  0
  5  6  1  0
  6  7  2  0
  7  8  1  0
  8  9  1  0
  8 13  1  0
  9 10  1  0
 10 11  1  0
 11 12  1  0
 12 13  1  0
M  END
