
     RDKit          3D

 13 14  0  0  0  0  0  0  0  0999 V2000
    3.2110   -1.4970    0.1600 C   0  0  0  0  0  0  0  0  0  0  0  0
    1.9500   -1.1880   -0.2030 C   0  0  0  0  0  0  0  0  0  0  0  0
    1.5270    0.1640   -0.3960 C   0  0  0  0  0  0  0  0  0  0  0  0
    0.1600    0.5600   -0.7790 C   0  0  0  0  0  0  0  0  0  0  0  0
   -0.9000    0.1720    0.1210 N   0  0  0  0  0  0  0  0  0  0  0  0
   -2.0640    1.0940   -0.1250 C   0  0  0  0  0  0  0  0  0  0  0  0
   -2.9690    0.9040    1.0630 C   0  0  0  0  0  0  0  0  0  0  0  0
   -2.9830   -0.4050    1.5200 O   0  0  0  0  0  0  0  0  0  0  0  0
   -2.7390   -1.3370    0.5420 C   0  0  0  0  0  0  0  0  0  0  0  0
   -1.5330   -1.1060   -0.3010 C   0  0  0  0  0  0  0  0  0  0  0  0
    2.4550    1.1140   -0.1970 C   0  0  0  0  0  0  0  0  0  0  0  0
    3.8320    0.8660    0.1940 C   0  0  0  0  0  0  0  0  0  0  0  0
    4.1360   -0.4950    0.3560 O   0  0  0  0  0  0  0  0  0  0  0  0
  1  2  2  0
  1 13  1  0
  2  3  1  0
  3  4  1  0
  3 11  2  0
  4  5  1  0
  5  6  1  0
  5 10  1  0
  6  7  1  0
  7  8  1  0
  8  9  1  0
  9 10  1  0
 11 12  1  0
 12 13  1  0
M  END
