
     RDKit          3D

 13 14  0  0  0  0  0  0  0  0999 V2000
    3.5600    0.9850   -0.3420 C   0  0  0  0  0  0  0  0  0  0  0  0
    3.0490   -0.3330   -0.2730 O   0  0  0  0  0  0  0  0  0  0  0  0
    1.6580   -0.5290   -0.1970 C   0  0  0  0  0  0  0  0  0  0  0  0
    1.1080   -1.7900   -0.1280 C   0  0  0  0  0  0  0  0  0  0  0  0
   -0.2520   -2.0070   -0.0530 C   0  0  0  0  0  0  0  0  0  0  0  0
   -1.0710   -0.8970   -0.0490 C   0  0  0  0  0  0  0  0  0  0  0  0
   -2.4440   -1.0490    0.0250 C   0  0  0  0  0  0  0  0  0  0  0  0
   -2.8830   -2.2240    0.0850 O   0  0  0  0  0  0  0  0  0  0  0  0
   -3.2810    0.0040    0.0310 N   0  0  0  0  0  0  0  0  0  0  0  0
   -2.8150    1.2630   -0.0340 C   0  0  0  0  0  0  0  0  0  0  0  0
   -1.4500    1.4560   -0.1080 C   0  0  0  0  0  0  0  0  0  0  0  0
   -0.5830    0.3830   -0.1160 C   0  0  0  0  0  0  0  0  0  0  0  0
    0.7840    0.5380   -0.1890 C   0  0  0  0  0  0  0  0  0  0  0  0
  1  2  1  0
  2  3  1  0
  3  4  2  0
  3 13  1  0
  4  5  1  0
  5  6  2  0
  6  7  1  0
  6 12  1  0
  7  8  2  0
  7  9  1  0
  9 10  1  0
 10 11  2  0
 11 12  1  0
 12 13  2  0
M  END
