
     RDKit          3D

 21 23  0  0  0  0  0  0  0  0999 V2000
    4.4420    2.7350    0.3200 C   0  0  0  0  0  0  0  0  0  0  0  0
    4.2750    2.1400   -1.0420 C   0  0  0  0  0  0  0  0  0  0  0  0
    3.4220    1.0130   -1.0160 O   0  0  0  0  0  0  0  0  0  0  0  0
    2.1000    1.2040   -0.5640 C   0  0  0  0  0  0  0  0  0  0  0  0
    1.7250    2.3250   -0.2080 O   0  0  0  0  0  0  0  0  0  0  0  0
    1.2390    0.0520   -0.5420 C   0  0  0  0  0  0  0  0  0  0  0  0
    1.7080   -1.1900   -0.9170 C   0  0  0  0  0  0  0  0  0  0  0  0
    0.9160   -2.3280   -0.9030 C   0  0  0  0  0  0  0  0  0  0  0  0
   -0.3750   -2.2060   -0.5020 C   0  0  0  0  0  0  0  0  0  0  0  0
   -0.8930   -0.9510   -0.1100 C   0  0  0  0  0  0  0  0  0  0  0  0
   -0.1060    0.1600   -0.1280 C   0  0  0  0  0  0  0  0  0  0  0  0
   -0.6280    1.4770    0.2730 C   0  0  0  0  0  0  0  0  0  0  0  0
   -2.0780    1.5330    0.5670 C   0  0  2  0  0  0  0  0  0  0  0  0
   -2.8870    1.8320   -0.6900 C   0  0  0  0  0  0  0  0  0  0  0  0
   -2.3930    2.6520    1.5620 C   0  0  0  0  0  0  0  0  0  0  0  0
   -2.6090    0.2560    1.1800 C   0  0  0  0  0  0  0  0  0  0  0  0
   -2.3090   -0.9170    0.3120 C   0  0  1  0  0  0  0  0  0  0  0  0
   -3.1720   -1.0140   -0.7780 O   0  0  0  0  0  0  0  0  0  0  0  0
   -1.0590   -3.5290   -0.5540 C   0  0  0  0  0  0  0  0  0  0  0  0
    0.1150   -4.5010   -0.5910 C   0  0  0  0  0  0  0  0  0  0  0  0
    1.2210   -3.7530   -1.2680 C   0  0  0  0  0  0  0  0  0  0  0  0
  1  2  1  0
  2  3  1  0
  3  4  1  0
  4  5  2  0
  4  6  1  0
  6  7  2  0
  6 11  1  0
  7  8  1  0
  8  9  2  0
  8 21  1  0
  9 10  1  0
  9 19  1  0
 10 11  2  0
 10 17  1  0
 11 12  1  0
 12 13  1  0
 13 14  1  6
 13 15  1  0
 13 16  1  0
 16 17  1  0
 17 18  1  6
 19 20  1  0
 20 21  1  0
M  END
