
     RDKit          3D

 25 28  0  0  0  0  0  0  0  0999 V2000
    5.8350    2.4250   -2.5430 C   0  0  0  0  0  0  0  0  0  0  0  0
    5.1190    1.7720   -1.5070 O   0  0  0  0  0  0  0  0  0  0  0  0
    3.7430    1.7520   -1.4140 C   0  0  0  0  0  0  0  0  0  0  0  0
    3.0770    2.3470   -2.2950 O   0  0  0  0  0  0  0  0  0  0  0  0
    3.0600    1.0590   -0.3190 C   0  0  0  0  0  0  0  0  0  0  0  0
    3.6870    0.3650    0.7120 C   0  0  0  0  0  0  0  0  0  0  0  0
    2.6660   -0.1230    1.5080 C   0  0  0  0  0  0  0  0  0  0  0  0
    1.4820    0.2740    0.9600 C   0  0  0  0  0  0  0  0  0  0  0  0
    0.0600    0.0170    1.4240 C   0  0  2  0  0  0  0  0  0  0  0  0
    0.1220   -0.4400    2.8380 C   0  0  0  0  0  0  0  0  0  0  0  0
    0.0490   -1.8850    3.1180 C   0  0  0  0  0  0  0  0  0  0  0  0
    0.5340   -2.7300    1.9700 C   0  0  0  0  0  0  0  0  0  0  0  0
   -0.3100   -2.3530    0.7920 C   0  0  0  0  0  0  0  0  0  0  0  0
   -0.8510   -3.2970   -0.0420 C   0  0  0  0  0  0  0  0  0  0  0  0
   -1.6560   -2.9350   -1.1000 C   0  0  0  0  0  0  0  0  0  0  0  0
   -1.9320   -1.6420   -1.3380 N   0  0  0  0  0  0  0  0  0  0  0  0
   -1.3960   -0.6970   -0.5060 C   0  0  0  0  0  0  0  0  0  0  0  0
   -1.7790    0.7320   -0.7390 C   0  0  1  0  0  0  0  0  0  0  0  0
   -2.3950    0.9520   -2.0760 C   0  0  0  0  0  0  0  0  0  0  0  0
   -3.8760    0.7880   -2.0230 C   0  0  0  0  0  0  0  0  0  0  0  0
   -4.3260    1.9340   -1.3030 O   0  0  0  0  0  0  0  0  0  0  0  0
   -4.0470    1.6250    0.0210 C   0  0  0  0  0  0  0  0  0  0  0  0
   -2.6260    1.3210    0.3280 C   0  0  0  0  0  0  0  0  0  0  0  0
   -0.5840   -0.9950    0.5590 C   0  0  0  0  0  0  0  0  0  0  0  0
    1.7850    0.9590   -0.1050 O   0  0  0  0  0  0  0  0  0  0  0  0
  1  2  1  0
  2  3  1  0
  3  4  2  0
  3  5  1  0
  5  6  2  0
  5 25  1  0
  6  7  1  0
  7  8  2  0
  9  8  1  6
  8 25  1  0
  9 10  1  0
  9 24  1  0
 10 11  1  0
 11 12  1  0
 12 13  1  0
 13 14  2  0
 13 24  1  0
 14 15  1  0
 15 16  2  0
 16 17  1  0
 18 17  1  1
 17 24  2  0
 18 19  1  0
 18 23  1  0
 19 20  1  0
 20 21  1  0
 21 22  1  0
 22 23  1  0
M  CHG  1  16   1
M  END
