
     RDKit          3D

 25 29  0  0  0  0  0  0  0  0999 V2000
   -6.0830   -0.2940    0.2420 C   0  0  0  0  0  0  0  0  0  0  0  0
   -4.9360   -1.1230    0.1070 O   0  0  0  0  0  0  0  0  0  0  0  0
   -3.6780   -0.5400    0.0520 C   0  0  0  0  0  0  0  0  0  0  0  0
   -3.5310    0.8120    0.1260 C   0  0  0  0  0  0  0  0  0  0  0  0
   -2.2390    1.3330    0.0650 C   0  0  0  0  0  0  0  0  0  0  0  0
   -1.1370    0.5040   -0.0670 C   0  0  0  0  0  0  0  0  0  0  0  0
   -1.3350   -0.8870   -0.1410 C   0  0  0  0  0  0  0  0  0  0  0  0
   -2.6070   -1.4070   -0.0810 C   0  0  0  0  0  0  0  0  0  0  0  0
   -0.2700   -1.7700   -0.2740 C   0  0  0  0  0  0  0  0  0  0  0  0
   -0.4710   -3.1260   -0.3500 C   0  0  0  0  0  0  0  0  0  0  0  0
    0.6410   -3.9340   -0.4860 C   0  0  0  0  0  0  0  0  0  0  0  0
    1.9210   -3.3900   -0.5440 C   0  0  0  0  0  0  0  0  0  0  0  0
    2.0690   -2.0560   -0.4660 N   0  0  0  0  0  0  0  0  0  0  0  0
    0.9990   -1.2210   -0.3320 C   0  0  0  0  0  0  0  0  0  0  0  0
    1.2510    0.1280   -0.2640 C   0  0  0  0  0  0  0  0  0  0  0  0
    2.5370    0.6150   -0.3300 C   0  0  0  0  0  0  0  0  0  0  0  0
    3.5870   -0.2690   -0.4590 O   0  0  0  0  0  0  0  0  0  0  0  0
    4.2800   -0.8150    0.6480 C   0  0  0  0  0  0  0  0  0  0  0  0
    2.7260    1.9870   -0.2610 C   0  0  0  0  0  0  0  0  0  0  0  0
    1.6750    2.8530   -0.1310 C   0  0  0  0  0  0  0  0  0  0  0  0
    0.3830    2.3420   -0.0660 C   0  0  0  0  0  0  0  0  0  0  0  0
    0.1580    1.0010   -0.1300 C   0  0  0  0  0  0  0  0  0  0  0  0
    2.1160    4.1550   -0.0850 O   0  0  0  0  0  0  0  0  0  0  0  0
    3.5370    4.1470   -0.1860 C   0  0  0  0  0  0  0  0  0  0  0  0
    3.8740    2.7870   -0.2980 O   0  0  0  0  0  0  0  0  0  0  0  0
  1  2  1  0
  2  3  1  0
  3  4  2  0
  3  8  1  0
  4  5  1  0
  5  6  2  0
  6  7  1  0
  6 22  1  0
  7  8  2  0
  7  9  1  0
  9 10  2  0
  9 14  1  0
 10 11  1  0
 11 12  2  0
 12 13  1  0
 13 14  2  0
 14 15  1  0
 15 16  2  0
 15 22  1  0
 16 17  1  0
 16 19  1  0
 17 18  1  0
 19 20  2  0
 19 25  1  0
 20 21  1  0
 20 23  1  0
 21 22  2  0
 23 24  1  0
 24 25  1  0
M  END
