
     RDKit          3D

 25 29  0  0  0  0  0  0  0  0999 V2000
   -4.6790   -1.8890    0.1690 C   0  0  0  0  0  0  0  0  0  0  0  0
   -4.8360   -0.8450   -0.8370 N   0  0  1  0  0  0  0  0  0  0  0  0
   -5.4940    0.2980   -0.2740 C   0  0  0  0  0  0  0  0  0  0  0  0
   -4.6470    1.4560    0.0700 C   0  0  0  0  0  0  0  0  0  0  0  0
   -3.1910    1.1890    0.1670 C   0  0  0  0  0  0  0  0  0  0  0  0
   -2.3470    1.8900    0.9860 C   0  0  0  0  0  0  0  0  0  0  0  0
   -0.9760    1.6090    0.9810 C   0  0  0  0  0  0  0  0  0  0  0  0
   -0.4530    0.6320    0.1620 C   0  0  0  0  0  0  0  0  0  0  0  0
    0.8710    0.1770   -0.0290 C   0  0  0  0  0  0  0  0  0  0  0  0
    2.0340    0.7070    0.6510 C   0  0  0  0  0  0  0  0  0  0  0  0
    1.9390    1.7720    1.3510 O   0  0  0  0  0  0  0  0  0  0  0  0
    3.3440    0.1110    0.5930 C   0  0  0  0  0  0  0  0  0  0  0  0
    3.6250   -1.2170    0.4110 C   0  0  0  0  0  0  0  0  0  0  0  0
    4.9050   -1.7200    0.3120 C   0  0  0  0  0  0  0  0  0  0  0  0
    5.9670   -0.8230    0.4060 C   0  0  0  0  0  0  0  0  0  0  0  0
    5.7510    0.5220    0.5910 C   0  0  0  0  0  0  0  0  0  0  0  0
    4.4670    0.9490    0.6790 C   0  0  0  0  0  0  0  0  0  0  0  0
    6.9980    1.1640    0.6470 O   0  0  0  0  0  0  0  0  0  0  0  0
    7.9130    0.2520    0.0570 C   0  0  0  0  0  0  0  0  0  0  0  0
    7.3340   -1.0250    0.3440 O   0  0  0  0  0  0  0  0  0  0  0  0
    0.7240   -0.8000   -0.9790 C   0  0  0  0  0  0  0  0  0  0  0  0
   -0.5470   -0.9200   -1.3220 O   0  0  0  0  0  0  0  0  0  0  0  0
   -1.2960   -0.0770   -0.6640 C   0  0  0  0  0  0  0  0  0  0  0  0
   -2.6600    0.2140   -0.6450 C   0  0  0  0  0  0  0  0  0  0  0  0
   -3.5850   -0.5410   -1.4900 C   0  0  0  0  0  0  0  0  0  0  0  0
  2  1  1  1
  2  3  1  0
  2 25  1  0
  3  4  1  0
  4  5  1  0
  5  6  2  0
  5 24  1  0
  6  7  1  0
  7  8  2  0
  8  9  1  0
  8 23  1  0
  9 10  1  0
  9 21  2  0
 10 11  2  0
 10 12  1  0
 12 13  2  0
 12 17  1  0
 13 14  1  0
 14 15  2  0
 15 16  1  0
 15 20  1  0
 16 17  2  0
 16 18  1  0
 18 19  1  0
 19 20  1  0
 21 22  1  0
 22 23  1  0
 23 24  2  0
 24 25  1  0
M  CHG  1   2   1
M  END
