
     RDKit          3D

 29 31  0  0  0  0  0  0  0  0999 V2000
    1.6410    1.5040    1.5040 C   0  0  0  0  0  0  0  0  0  0  0  0
    0.6620    0.8390    0.5720 C   0  0  0  0  0  0  0  0  0  0  0  0
    1.3060    0.1460   -0.4800 N   0  0  0  0  0  0  0  0  0  0  0  0
    1.7380   -1.1820   -0.1720 C   0  0  0  0  0  0  0  0  0  0  0  0
    2.9420   -1.5420   -0.5050 C   0  0  0  0  0  0  0  0  0  0  0  0
    3.3930   -2.9300   -0.1830 C   0  0  0  0  0  0  0  0  0  0  0  0
    4.9190   -2.8350   -0.0570 C   0  0  0  0  0  0  0  0  0  0  0  0
    5.4450   -2.6690   -1.4600 C   0  0  1  0  0  0  0  0  0  0  0  0
    6.8290   -2.6970   -1.5050 F   0  0  0  0  0  0  0  0  0  0  0  0
    4.9950   -3.7710   -2.1970 F   0  0  0  0  0  0  0  0  0  0  0  0
    4.8760   -1.4250   -2.0560 C   0  0  0  0  0  0  0  0  0  0  0  0
    3.9210   -0.6740   -1.1890 C   0  0  0  0  0  0  0  0  0  0  0  0
   -0.6460    0.8600    0.7150 C   0  0  0  0  0  0  0  0  0  0  0  0
   -1.1440    1.5900    1.8800 C   0  0  0  0  0  0  0  0  0  0  0  0
   -0.1450    2.1040    2.5840 O   0  0  0  0  0  0  0  0  0  0  0  0
   -2.4140    1.8960    2.4570 C   0  0  0  0  0  0  0  0  0  0  0  0
   -2.3640    2.6940    3.6460 C   0  0  0  0  0  0  0  0  0  0  0  0
   -3.4930    3.0610    4.3070 C   0  0  0  0  0  0  0  0  0  0  0  0
   -4.6950    2.6960    3.8800 N   0  0  0  0  0  0  0  0  0  0  0  0
   -4.8000    1.9580    2.7880 C   0  0  0  0  0  0  0  0  0  0  0  0
   -3.6740    1.5590    2.0790 C   0  0  0  0  0  0  0  0  0  0  0  0
   -1.5510    0.1810   -0.2190 C   0  0  2  0  0  0  0  0  0  0  0  0
   -2.1990   -1.0000    0.4080 C   0  0  0  0  0  0  0  0  0  0  0  0
   -3.1710   -1.7780   -0.3890 C   0  0  0  0  0  0  0  0  0  0  0  0
   -4.2960   -1.1130   -0.8210 O   0  0  0  0  0  0  0  0  0  0  0  0
   -1.1020   -0.1060   -1.6310 C   0  0  0  0  0  0  0  0  0  0  0  0
   -1.3380    1.3380   -1.9810 C   0  0  1  0  0  0  0  0  0  0  0  0
   -1.8980    1.6220   -3.3430 C   0  0  0  0  0  0  0  0  0  0  0  0
   -2.4730    1.2230   -0.9010 C   0  0  0  0  0  0  0  0  0  0  0  0
  1  2  1  0
  2  3  1  0
  2 13  2  3
  3  4  1  0
  4  5  2  3
  5  6  1  0
  5 12  1  0
  6  7  1  0
  7  8  1  0
  8  9  1  1
  8 10  1  0
  8 11  1  0
 11 12  1  0
 13 14  1  0
 13 22  1  0
 14 15  2  0
 14 16  1  0
 16 17  2  0
 16 21  1  0
 17 18  1  0
 18 19  2  0
 19 20  1  0
 20 21  2  0
 22 23  1  1
 22 26  1  0
 22 29  1  0
 23 24  1  0
 24 25  1  0
 26 27  1  0
 27 28  1  6
 27 29  1  0
M  END
