
     RDKit          3D

 31 33  0  0  0  0  0  0  0  0999 V2000
   -4.5290   -0.6370    5.7040 C   0  0  0  0  0  0  0  0  0  0  0  0
   -4.7520   -0.4950    4.3040 O   0  0  0  0  0  0  0  0  0  0  0  0
   -5.9990   -0.4290    3.7230 C   0  0  0  0  0  0  0  0  0  0  0  0
   -6.9700   -0.5110    4.5640 O   0  0  0  0  0  0  0  0  0  0  0  0
   -6.3340   -0.2810    2.3350 C   0  0  0  0  0  0  0  0  0  0  0  0
   -5.6520   -0.1690    1.2170 C   0  0  0  0  0  0  0  0  0  0  0  0
   -4.1540   -0.1780    1.2000 C   0  0  0  0  0  0  0  0  0  0  0  0
   -3.4700   -0.2960    2.2300 O   0  0  0  0  0  0  0  0  0  0  0  0
   -3.4290   -0.0460   -0.0200 N   0  0  0  0  0  0  0  0  0  0  0  0
   -2.0190   -0.0550   -0.1420 C   0  0  0  0  0  0  0  0  0  0  0  0
   -1.1420   -0.6540    0.7410 C   0  0  0  0  0  0  0  0  0  0  0  0
    0.2060   -0.5680    0.5470 C   0  0  0  0  0  0  0  0  0  0  0  0
    0.7540    0.1230   -0.5440 C   0  0  0  0  0  0  0  0  0  0  0  0
    2.1960    0.1210   -0.7210 C   0  0  0  0  0  0  0  0  0  0  0  0
    2.8450    0.0900    0.3640 O   0  0  0  0  0  0  0  0  0  0  0  0
    2.8810    0.1440   -1.9390 N   0  0  0  0  0  0  0  0  0  0  0  0
    4.3160    0.1410   -2.1000 C   0  0  0  0  0  0  0  0  0  0  0  0
    5.1640    0.0140   -1.0210 C   0  0  0  0  0  0  0  0  0  0  0  0
    6.5590   -0.0060   -1.1300 C   0  0  0  0  0  0  0  0  0  0  0  0
    7.4500   -0.1450    0.0400 C   0  0  0  0  0  0  0  0  0  0  0  0
    7.1050    0.1060   -2.3750 C   0  0  0  0  0  0  0  0  0  0  0  0
    6.3150    0.2330   -3.4720 C   0  0  0  0  0  0  0  0  0  0  0  0
    4.9080    0.2510   -3.3420 C   0  0  0  0  0  0  0  0  0  0  0  0
    4.1530    0.3790   -4.5650 C   0  0  0  0  0  0  0  0  0  0  0  0
    2.9300    0.4040   -4.7490 O   0  0  0  0  0  0  0  0  0  0  0  0
   -0.1120    0.7040   -1.3960 C   0  0  0  0  0  0  0  0  0  0  0  0
    0.4970    1.7700   -2.8830 Br  0  0  0  0  0  0  0  0  0  0  0  0
   -1.4800    0.6250   -1.2140 C   0  0  0  0  0  0  0  0  0  0  0  0
   -6.3530   -0.0460    0.0640 O   0  0  0  0  0  0  0  0  0  0  0  0
   -7.6260    0.5400    0.1570 C   0  0  0  0  0  0  0  0  0  0  0  0
   -8.0750   -0.2020    1.7880 S   0  0  0  0  0  0  0  0  0  0  0  0
  1  2  1  0
  2  3  1  0
  3  4  2  0
  3  5  1  0
  5  6  2  0
  5 31  1  0
  6  7  1  0
  6 29  1  0
  7  8  2  0
  7  9  1  0
  9 10  1  0
 10 11  2  0
 10 28  1  0
 11 12  1  0
 12 13  2  0
 13 14  1  0
 13 26  1  0
 14 15  2  0
 14 16  1  0
 16 17  1  0
 17 18  2  0
 17 23  1  0
 18 19  1  0
 19 20  1  0
 19 21  2  0
 21 22  1  0
 22 23  2  0
 23 24  1  0
 24 25  2  0
 26 27  1  0
 26 28  2  0
 29 30  1  0
 30 31  1  0
M  END
