
     RDKit          3D

 31 33  0  0  0  0  0  0  0  0999 V2000
   -8.6680    2.1680    1.1000 C   0  0  0  0  0  0  0  0  0  0  0  0
   -7.3750    1.7580    0.7500 O   0  0  0  0  0  0  0  0  0  0  0  0
   -7.0010    0.4640    0.4620 C   0  0  0  0  0  0  0  0  0  0  0  0
   -7.9030   -0.4190    0.5200 O   0  0  0  0  0  0  0  0  0  0  0  0
   -5.6480    0.0780    0.1020 C   0  0  0  0  0  0  0  0  0  0  0  0
   -4.5460    0.8910   -0.0120 C   0  0  0  0  0  0  0  0  0  0  0  0
   -3.4840    0.0920   -0.3730 C   0  0  0  0  0  0  0  0  0  0  0  0
   -2.1130    0.5290   -0.6060 C   0  0  0  0  0  0  0  0  0  0  0  0
   -1.8510    1.7510   -0.4700 O   0  0  0  0  0  0  0  0  0  0  0  0
   -1.1140   -0.3640   -0.9690 O   0  0  0  0  0  0  0  0  0  0  0  0
    0.1780    0.0970   -1.1800 C   0  0  2  0  0  0  0  0  0  0  0  0
    0.6090   -0.2510   -2.5820 C   0  0  0  0  0  0  0  0  0  0  0  0
    1.1430   -0.4840   -0.1660 C   0  0  0  0  0  0  0  0  0  0  0  0
    0.7230   -1.2690    0.7080 O   0  0  0  0  0  0  0  0  0  0  0  0
    2.5180   -0.1310   -0.2160 N   0  0  0  0  0  0  0  0  0  0  0  0
    3.5280   -0.5910    0.6570 C   0  0  0  0  0  0  0  0  0  0  0  0
    4.7780   -0.1440    0.4500 C   0  0  0  0  0  0  0  0  0  0  0  0
    5.4160    0.7500   -0.4990 C   0  0  0  0  0  0  0  0  0  0  0  0
    4.6280    1.6200   -1.8280 S   0  0  0  0  0  0  0  0  0  0  0  0
    6.7280    0.8150   -0.2030 C   0  0  0  0  0  0  0  0  0  0  0  0
    7.6800    1.6510   -0.9890 C   0  0  0  0  0  0  0  0  0  0  0  0
    7.0130   -0.0210    0.9380 C   0  0  0  0  0  0  0  0  0  0  0  0
    8.7390   -0.2490    1.7250 Br  0  0  0  0  0  0  0  0  0  0  0  0
    5.8790   -0.5800    1.3200 C   0  0  0  0  0  0  0  0  0  0  0  0
    5.6210   -1.4940    2.4040 C   0  0  0  0  0  0  0  0  0  0  0  0
    6.5450   -1.9030    3.1880 O   0  0  0  0  0  0  0  0  0  0  0  0
    4.2580   -1.9470    2.5850 C   0  0  0  0  0  0  0  0  0  0  0  0
    3.3180   -1.5010    1.7490 C   0  0  0  0  0  0  0  0  0  0  0  0
   -3.8990   -1.1960   -0.4870 N   0  0  0  0  0  0  0  0  0  0  0  0
   -5.2040   -1.1900   -0.1980 C   0  0  0  0  0  0  0  0  0  0  0  0
   -6.0740   -2.3930   -0.1970 C   0  0  0  0  0  0  0  0  0  0  0  0
  1  2  1  0
  2  3  1  0
  3  4  2  0
  3  5  1  0
  5  6  1  0
  5 30  2  0
  6  7  2  0
  7  8  1  0
  7 29  1  0
  8  9  2  0
  8 10  1  0
 10 11  1  0
 11 12  1  6
 11 13  1  0
 13 14  2  0
 13 15  1  0
 15 16  1  0
 16 17  2  0
 16 28  1  0
 17 18  1  0
 17 24  1  0
 18 19  1  0
 18 20  2  0
 20 21  1  0
 20 22  1  0
 22 23  1  0
 22 24  2  0
 24 25  1  0
 25 26  2  0
 25 27  1  0
 27 28  2  0
 29 30  1  0
 30 31  1  0
M  END
