
     RDKit          3D

 29 31  0  0  0  0  0  0  0  0999 V2000
    5.3120   -2.3060   -2.2690 C   0  0  0  0  0  0  0  0  0  0  0  0
    4.9680   -1.6000   -0.9930 C   0  0  0  0  0  0  0  0  0  0  0  0
    5.7190   -1.8000    0.1370 C   0  0  0  0  0  0  0  0  0  0  0  0
    5.4200   -1.1720    1.3070 C   0  0  0  0  0  0  0  0  0  0  0  0
    4.3120   -0.2970    1.3570 C   0  0  0  0  0  0  0  0  0  0  0  0
    3.5320   -0.0620    0.2650 C   0  0  0  0  0  0  0  0  0  0  0  0
    2.3930    0.7840    0.2280 N   0  0  0  0  0  0  0  0  0  0  0  0
    1.9460    1.5750    1.2860 C   0  0  0  0  0  0  0  0  0  0  0  0
    2.5800    1.5840    2.3710 O   0  0  0  0  0  0  0  0  0  0  0  0
    0.7350    2.4210    1.1810 C   0  0  0  0  0  0  0  0  0  0  0  0
    0.8360    3.7440    1.6290 C   0  0  0  0  0  0  0  0  0  0  0  0
   -0.2480    4.5790    1.5700 C   0  0  0  0  0  0  0  0  0  0  0  0
   -1.4330    4.0950    1.0640 C   0  0  0  0  0  0  0  0  0  0  0  0
   -1.5320    2.8040    0.6270 C   0  0  0  0  0  0  0  0  0  0  0  0
   -0.4190    1.9550    0.6920 C   0  0  0  0  0  0  0  0  0  0  0  0
   -0.6230    0.6060    0.1050 C   0  0  0  0  0  0  0  0  0  0  0  0
   -2.0360    0.3070   -0.1220 N   0  0  0  0  0  0  0  0  0  0  0  0
   -2.6810   -0.3020    0.9890 C   0  0  0  0  0  0  0  0  0  0  0  0
   -2.8340    0.5330    2.2170 C   0  0  0  0  0  0  0  0  0  0  0  0
   -3.5410   -0.3700    3.2600 C   0  0  1  0  0  0  0  0  0  0  0  0
   -3.6990    0.3640    4.4130 F   0  0  0  0  0  0  0  0  0  0  0  0
   -4.7510   -0.8230    2.7840 F   0  0  0  0  0  0  0  0  0  0  0  0
   -2.2490   -0.3000   -1.3960 C   0  0  1  0  0  0  0  0  0  0  0  0
   -1.5870   -1.6270   -1.5950 C   0  0  0  0  0  0  0  0  0  0  0  0
   -2.6580   -2.6880   -1.3750 C   0  0  0  0  0  0  0  0  0  0  0  0
   -3.9760   -1.9790   -1.5860 C   0  0  0  0  0  0  0  0  0  0  0  0
   -3.6770   -0.5080   -1.7370 C   0  0  0  0  0  0  0  0  0  0  0  0
    3.8810   -0.7380   -0.9340 C   0  0  0  0  0  0  0  0  0  0  0  0
    3.1490   -0.5280   -1.9970 O   0  0  0  0  0  0  0  0  0  0  0  0
  1  2  1  0
  2  3  2  0
  2 28  1  0
  3  4  1  0
  4  5  2  0
  5  6  1  0
  6  7  1  0
  6 28  2  0
  7  8  1  0
  8  9  2  0
  8 10  1  0
 10 11  2  0
 10 15  1  0
 11 12  1  0
 12 13  2  0
 13 14  1  0
 14 15  2  0
 15 16  1  0
 16 17  1  0
 17 18  1  0
 23 17  1  1
 18 19  1  0
 19 20  1  0
 20 21  1  1
 20 22  1  0
 23 24  1  0
 23 27  1  0
 24 25  1  0
 25 26  1  0
 26 27  1  0
 28 29  1  0
M  END
