
     RDKit          3D

 30 33  0  0  0  0  0  0  0  0999 V2000
    6.2790   -2.2120    1.2820 N   0  0  0  0  0  0  0  0  0  0  0  0
    5.9300   -1.0800    0.5090 C   0  0  0  0  0  0  0  0  0  0  0  0
    6.8850   -0.0610    0.3030 N   0  0  0  0  0  0  0  0  0  0  0  0
    4.7540   -0.9930    0.0070 N   0  0  0  0  0  0  0  0  0  0  0  0
    3.7850   -2.0350    0.2200 C   0  0  0  0  0  0  0  0  0  0  0  0
    4.1990   -3.2040    0.3850 O   0  0  0  0  0  0  0  0  0  0  0  0
    2.3770   -1.7040    0.2380 C   0  0  0  0  0  0  0  0  0  0  0  0
    1.9010   -0.4660    0.0660 N   0  0  0  0  0  0  0  0  0  0  0  0
    0.5580   -0.1900    0.0900 C   0  0  0  0  0  0  0  0  0  0  0  0
    0.1380    1.2000   -0.0250 C   0  0  0  0  0  0  0  0  0  0  0  0
   -1.0470    1.8390    0.1900 C   0  0  0  0  0  0  0  0  0  0  0  0
   -0.8780    3.1950   -0.0720 C   0  0  0  0  0  0  0  0  0  0  0  0
   -1.7440    4.2640   -0.0120 C   0  0  0  0  0  0  0  0  0  0  0  0
   -3.0280    4.0820    0.3600 F   0  0  0  0  0  0  0  0  0  0  0  0
   -1.2770    5.5230   -0.3380 C   0  0  0  0  0  0  0  0  0  0  0  0
    0.0570    5.6560   -0.7150 C   0  0  0  0  0  0  0  0  0  0  0  0
    0.9170    4.6110   -0.7780 C   0  0  0  0  0  0  0  0  0  0  0  0
    0.4380    3.3370   -0.4460 C   0  0  0  0  0  0  0  0  0  0  0  0
    0.9810    2.1620   -0.4030 O   0  0  0  0  0  0  0  0  0  0  0  0
   -0.3280   -1.1870    0.2900 C   0  0  0  0  0  0  0  0  0  0  0  0
   -1.7200   -1.0930    0.2710 N   0  0  0  0  0  0  0  0  0  0  0  0
   -2.3290   -0.9190   -1.0260 C   0  0  0  0  0  0  0  0  0  0  0  0
   -3.6500   -0.3100   -1.1830 C   0  0  0  0  0  0  0  0  0  0  0  0
   -4.9320   -1.0530   -0.8700 C   0  0  0  0  0  0  0  0  0  0  0  0
   -5.1280   -1.2340    0.6820 C   0  0  0  0  0  0  0  0  0  0  0  0
   -3.8400   -1.2570    1.2380 C   0  0  0  0  0  0  0  0  0  0  0  0
   -2.4490   -1.2180    1.5430 C   0  0  0  0  0  0  0  0  0  0  0  0
    0.1790   -2.4550    0.4660 N   0  0  0  0  0  0  0  0  0  0  0  0
    1.4730   -2.7470    0.4490 C   0  0  0  0  0  0  0  0  0  0  0  0
    1.9710   -4.0690    0.6340 N   0  0  0  0  0  0  0  0  0  0  0  0
  1  2  1  0
  2  3  1  0
  2  4  2  3
  4  5  1  0
  5  6  2  0
  5  7  1  0
  7  8  2  0
  7 29  1  0
  8  9  1  0
  9 10  1  0
  9 20  2  0
 10 11  2  0
 10 19  1  0
 11 12  1  0
 12 13  2  0
 12 18  1  0
 13 14  1  0
 13 15  1  0
 15 16  2  0
 16 17  1  0
 17 18  2  0
 18 19  1  0
 20 21  1  0
 20 28  1  0
 21 22  1  0
 21 27  1  0
 22 23  1  0
 23 24  1  0
 24 25  1  0
 25 26  1  0
 26 27  1  0
 28 29  2  0
 29 30  1  0
M  CHG  1   4   1
M  END
