
     RDKit          3D

 29 31  0  0  0  0  0  0  0  0999 V2000
   -4.2250    0.5680    0.5490 C   0  0  0  0  0  0  0  0  0  0  0  0
   -4.8240   -0.5490   -0.2650 C   0  0  0  0  0  0  0  0  0  0  0  0
   -6.1530   -0.8700   -0.1040 C   0  0  0  0  0  0  0  0  0  0  0  0
   -6.8890   -0.1820    0.8110 F   0  0  0  0  0  0  0  0  0  0  0  0
   -6.7390   -1.8680   -0.8660 C   0  0  0  0  0  0  0  0  0  0  0  0
   -5.9880   -2.5630   -1.8090 C   0  0  0  0  0  0  0  0  0  0  0  0
   -6.5600   -3.5580   -2.5670 F   0  0  0  0  0  0  0  0  0  0  0  0
   -4.6760   -2.2420   -1.9650 C   0  0  0  0  0  0  0  0  0  0  0  0
   -4.0770   -1.2410   -1.2040 C   0  0  0  0  0  0  0  0  0  0  0  0
   -2.6620   -0.9630   -1.3530 C   0  0  0  0  0  0  0  0  0  0  0  0
   -2.2320   -0.6790   -2.5080 O   0  0  0  0  0  0  0  0  0  0  0  0
   -1.7690   -1.0020   -0.2860 N   0  0  0  0  0  0  0  0  0  0  0  0
   -0.3730   -0.7300   -0.3100 C   0  0  0  0  0  0  0  0  0  0  0  0
    0.4560   -1.6860   -0.0190 C   0  0  0  0  0  0  0  0  0  0  0  0
    1.8880   -1.4810   -0.0300 C   0  0  0  0  0  0  0  0  0  0  0  0
    2.3950   -0.3520   -0.3540 O   0  0  0  0  0  0  0  0  0  0  0  0
    2.8510   -2.5520    0.3270 C   0  0  0  0  0  0  0  0  0  0  0  0
    4.2620   -2.0200    0.2520 C   0  0  2  0  0  0  0  0  0  0  0  0
    4.6280   -1.5110   -1.1160 C   0  0  0  0  0  0  0  0  0  0  0  0
    5.2760   -3.0340    0.6720 C   0  0  0  0  0  0  0  0  0  0  0  0
    0.0470    0.5750   -0.6150 N   0  0  0  0  0  0  0  0  0  0  0  0
   -0.2320    1.7150    0.2700 C   0  0  1  0  0  0  0  0  0  0  0  0
    0.5390    1.6630    1.5420 C   0  0  0  0  0  0  0  0  0  0  0  0
    1.4600    2.8490    1.4530 C   0  0  0  0  0  0  0  0  0  0  0  0
    2.5070    3.4280    2.0610 C   0  0  0  0  0  0  0  0  0  0  0  0
    2.8740    4.6440    1.3410 C   0  0  0  0  0  0  0  0  0  0  0  0
    1.9110    4.6980    0.2330 C   0  0  0  0  0  0  0  0  0  0  0  0
    1.1050    3.6510    0.3190 C   0  0  0  0  0  0  0  0  0  0  0  0
   -0.0600    3.0290   -0.4020 C   0  0  0  0  0  0  0  0  0  0  0  0
  1  2  1  0
  2  3  2  0
  2  9  1  0
  3  4  1  0
  3  5  1  0
  5  6  2  0
  6  7  1  0
  6  8  1  0
  8  9  2  0
  9 10  1  0
 10 11  2  0
 10 12  1  0
 12 13  1  0
 13 14  2  3
 13 21  1  0
 14 15  1  0
 15 16  2  0
 15 17  1  0
 17 18  1  0
 18 19  1  6
 18 20  1  0
 22 21  1  6
 22 23  1  0
 22 29  1  0
 23 24  1  0
 24 25  2  0
 24 28  1  0
 25 26  1  0
 26 27  1  0
 27 28  2  0
 28 29  1  0
M  END
