
     RDKit          3D

 27 27  0  0  0  0  0  0  0  0999 V2000
   -4.1180    3.7130    4.5050 C   0  0  0  0  0  0  0  0  0  0  0  0
   -3.9880    2.8030    3.5560 C   0  0  0  0  0  0  0  0  0  0  0  0
   -4.9790    1.7820    3.4160 C   0  0  0  0  0  0  0  0  0  0  0  0
   -4.9100    0.8410    2.4900 C   0  0  0  0  0  0  0  0  0  0  0  0
   -3.9070    0.7260    1.5680 C   0  0  0  0  0  0  0  0  0  0  0  0
   -3.9030   -0.3060    0.6090 C   0  0  0  0  0  0  0  0  0  0  0  0
   -2.6790   -0.4360   -0.1830 C   0  0  0  0  0  0  0  0  0  0  0  0
   -2.2830    0.5640   -0.8150 O   0  0  0  0  0  0  0  0  0  0  0  0
   -1.9670   -1.5770   -0.2440 O   0  0  0  0  0  0  0  0  0  0  0  0
   -0.7990   -1.9270   -0.8750 C   0  0  0  0  0  0  0  0  0  0  0  0
    0.4930   -1.3700   -0.3860 C   0  0  0  0  0  0  0  0  0  0  0  0
    0.6400    0.0960   -0.3910 C   0  0  0  0  0  0  0  0  0  0  0  0
    1.9320    0.5180    0.0530 O   0  0  0  0  0  0  0  0  0  0  0  0
    3.1150    0.1960   -0.5580 C   0  0  0  0  0  0  0  0  0  0  0  0
    3.0850   -0.5210   -1.5870 O   0  0  0  0  0  0  0  0  0  0  0  0
    4.3570    0.7170    0.0380 C   0  0  0  0  0  0  0  0  0  0  0  0
    5.6100    0.3550   -0.6780 C   0  0  0  0  0  0  0  0  0  0  0  0
    5.6390    0.8660   -2.0890 C   0  0  0  0  0  0  0  0  0  0  0  0
    6.9360    0.4720   -2.7700 C   0  0  0  0  0  0  0  0  0  0  0  0
    8.0710    1.0730   -1.9890 C   0  0  0  0  0  0  0  0  0  0  0  0
   -4.8940   -1.2250    0.5530 C   0  0  0  0  0  0  0  0  0  0  0  0
   -5.1120   -2.1260   -0.3850 C   0  0  0  0  0  0  0  0  0  0  0  0
   -4.3990   -2.3840   -1.5950 C   0  0  0  0  0  0  0  0  0  0  0  0
   -4.7770   -3.3970   -2.3910 C   0  0  0  0  0  0  0  0  0  0  0  0
   -5.8950   -1.0460    1.5400 C   0  0  0  0  0  0  0  0  0  0  0  0
   -6.8440   -1.8880    1.5330 O   0  0  0  0  0  0  0  0  0  0  0  0
   -5.8580   -0.0830    2.4060 O   0  0  0  0  0  0  0  0  0  0  0  0
  1  2  2  0
  2  3  1  0
  3  4  2  3
  4  5  1  0
  4 27  1  0
  5  6  2  0
  6  7  1  0
  6 21  1  0
  7  8  2  0
  7  9  1  0
  9 10  1  0
 10 11  1  0
 11 12  1  0
 12 13  1  0
 13 14  1  0
 14 15  2  0
 14 16  1  0
 16 17  1  0
 17 18  1  0
 18 19  1  0
 19 20  1  0
 21 22  2  3
 21 25  1  0
 22 23  1  0
 23 24  2  0
 25 26  2  0
 25 27  1  0
M  END
