
     RDKit          3D

 27 27  0  0  0  0  0  0  0  0999 V2000
   -7.6430    1.4400    2.2050 C   0  0  0  0  0  0  0  0  0  0  0  0
   -7.6490    1.1490    0.7100 C   0  0  0  0  0  0  0  0  0  0  0  0
   -6.2560    0.8760    0.2490 C   0  0  0  0  0  0  0  0  0  0  0  0
   -5.4860    1.6980   -0.4200 O   0  0  0  0  0  0  0  0  0  0  0  0
   -4.3150    1.1740   -0.6820 C   0  0  0  0  0  0  0  0  0  0  0  0
   -3.2010    1.8080   -1.4130 C   0  0  0  0  0  0  0  0  0  0  0  0
   -3.3010    2.9550   -1.8610 O   0  0  0  0  0  0  0  0  0  0  0  0
   -1.9460    1.0460   -1.6070 C   0  0  0  0  0  0  0  0  0  0  0  0
   -0.9780    1.4740   -0.5230 C   0  0  0  0  0  0  0  0  0  0  0  0
    0.3250    0.7800   -0.6010 C   0  0  0  0  0  0  0  0  0  0  0  0
    1.4560    1.4580   -0.7660 C   0  0  0  0  0  0  0  0  0  0  0  0
    1.3430    2.9260   -0.8680 C   0  0  0  0  0  0  0  0  0  0  0  0
    2.7340    0.7930   -0.8430 C   0  0  0  0  0  0  0  0  0  0  0  0
    3.8780    1.4150   -1.0070 C   0  0  0  0  0  0  0  0  0  0  0  0
    5.1410    0.6480   -1.0730 C   0  0  0  0  0  0  0  0  0  0  0  0
    6.2200    1.2250   -1.2310 O   0  0  0  0  0  0  0  0  0  0  0  0
    5.1810   -0.7330   -0.9640 O   0  0  0  0  0  0  0  0  0  0  0  0
    6.3540   -1.4890   -1.0210 C   0  0  2  0  0  0  0  0  0  0  0  0
    6.3660   -2.4470   -2.1830 C   0  0  0  0  0  0  0  0  0  0  0  0
    6.6780   -2.2330    0.2410 C   0  0  0  0  0  0  0  0  0  0  0  0
    6.8290   -1.3120    1.2970 O   0  0  0  0  0  0  0  0  0  0  0  0
    7.1340   -1.9330    2.4870 C   0  0  0  0  0  0  0  0  0  0  0  0
   -4.3370   -0.0930   -0.1330 C   0  0  0  0  0  0  0  0  0  0  0  0
   -5.5680   -0.3030    0.4660 C   0  0  0  0  0  0  0  0  0  0  0  0
   -5.9910   -1.5080    1.1530 C   0  0  0  0  0  0  0  0  0  0  0  0
   -5.0650   -2.6540    1.2550 C   0  0  0  0  0  0  0  0  0  0  0  0
   -7.1370   -1.5510    1.6470 O   0  0  0  0  0  0  0  0  0  0  0  0
  1  2  1  0
  2  3  1  0
  3  4  1  0
  3 24  2  0
  4  5  1  0
  5  6  1  0
  5 23  2  0
  6  7  2  0
  6  8  1  0
  8  9  1  0
  9 10  1  0
 10 11  2  3
 11 12  1  0
 11 13  1  0
 13 14  2  3
 14 15  1  0
 15 16  2  0
 15 17  1  0
 17 18  1  0
 18 19  1  6
 18 20  1  0
 20 21  1  0
 21 22  1  0
 23 24  1  0
 24 25  1  0
 25 26  1  0
 25 27  2  0
M  END
