
     RDKit          3D

 27 27  0  0  0  0  0  0  0  0999 V2000
   -2.6870    2.2700    1.4750 C   0  0  0  0  0  0  0  0  0  0  0  0
   -2.0300    0.9220    1.2550 C   0  0  0  0  0  0  0  0  0  0  0  0
   -2.4250    0.3740   -0.0780 C   0  0  2  0  0  0  0  0  0  0  0  0
   -1.9800    1.3310   -1.1610 C   0  0  0  0  0  0  0  0  0  0  0  0
   -0.5900    1.4650   -1.0890 O   0  0  0  0  0  0  0  0  0  0  0  0
    0.2980    0.4070   -1.2380 C   0  0  0  0  0  0  0  0  0  0  0  0
    1.3330    0.3720   -0.3930 C   0  0  0  0  0  0  0  0  0  0  0  0
    2.3050   -0.7070   -0.4880 C   0  0  0  0  0  0  0  0  0  0  0  0
    3.4670   -0.7680    0.4410 C   0  0  0  0  0  0  0  0  0  0  0  0
    4.2990   -1.6750    0.3740 O   0  0  0  0  0  0  0  0  0  0  0  0
    3.5860    0.2120    1.3720 O   0  0  0  0  0  0  0  0  0  0  0  0
    4.4850    0.4930    2.3500 C   0  0  0  0  0  0  0  0  0  0  0  0
    5.8740    0.8790    2.0410 C   0  0  1  0  0  0  0  0  0  0  0  0
    6.6410   -0.1680    1.2970 C   0  0  0  0  0  0  0  0  0  0  0  0
    5.9500    2.1440    1.1930 C   0  0  0  0  0  0  0  0  0  0  0  0
    2.1370   -1.6250   -1.4080 C   0  0  0  0  0  0  0  0  0  0  0  0
    1.0480   -1.7080   -2.3980 C   0  0  2  0  0  0  0  0  0  0  0  0
    0.3680   -3.0590   -2.2670 C   0  0  0  0  0  0  0  0  0  0  0  0
    1.6130   -1.6160   -3.8250 C   0  0  0  0  0  0  0  0  0  0  0  0
    0.1000   -0.5970   -2.2550 C   0  0  0  0  0  0  0  0  0  0  0  0
   -0.8840   -0.5220   -3.0230 O   0  0  0  0  0  0  0  0  0  0  0  0
   -3.8760    0.1850   -0.2140 C   0  0  0  0  0  0  0  0  0  0  0  0
   -4.5660    0.7780   -1.1100 O   0  0  0  0  0  0  0  0  0  0  0  0
   -4.6030   -0.6610    0.6350 O   0  0  0  0  0  0  0  0  0  0  0  0
   -5.9960   -0.8210    0.4800 C   0  0  1  0  0  0  0  0  0  0  0  0
   -6.3660   -2.2660    0.2330 C   0  0  0  0  0  0  0  0  0  0  0  0
   -6.6960   -0.3570    1.7430 C   0  0  0  0  0  0  0  0  0  0  0  0
  1  2  1  0
  3  2  1  1
  3  4  1  0
  3 22  1  0
  4  5  1  0
  5  6  1  0
  6  7  2  0
  6 20  1  0
  7  8  1  0
  8  9  1  0
  8 16  2  0
  9 10  2  0
  9 11  1  0
 11 12  1  0
 12 13  1  0
 13 14  1  6
 13 15  1  0
 16 17  1  0
 17 18  1  6
 17 19  1  0
 17 20  1  0
 20 21  2  0
 22 23  2  0
 22 24  1  0
 24 25  1  0
 25 26  1  1
 25 27  1  0
M  END
