
     RDKit          3D

 22 24  0  0  0  0  0  0  0  0999 V2000
    0.5020   -1.8700   -2.2000 O   0  0  0  0  0  0  0  0  0  0  0  0
    0.2260   -1.2300   -0.8500 S   0  0  2  0  0  0  0  0  0  0  0  0
    0.4470   -2.2830    0.2350 O   0  0  0  0  0  0  0  0  0  0  0  0
   -1.4070   -0.8040   -0.8180 N   0  0  0  0  0  0  0  0  0  0  0  0
   -1.8900   -0.3480    0.4380 C   0  0  0  0  0  0  0  0  0  0  0  0
   -3.3310    0.0210    0.4070 C   0  0  0  0  0  0  0  0  0  0  0  0
   -4.3080   -0.9170    0.6520 C   0  0  0  0  0  0  0  0  0  0  0  0
   -5.6540   -0.6460    0.6390 C   0  0  0  0  0  0  0  0  0  0  0  0
   -6.0510    0.6470    0.3640 C   0  0  0  0  0  0  0  0  0  0  0  0
   -5.0520    1.5730    0.1210 C   0  0  0  0  0  0  0  0  0  0  0  0
   -3.7460    1.2810    0.1400 N   0  0  0  0  0  0  0  0  0  0  0  0
    1.3540    0.0480   -0.5200 C   0  0  0  0  0  0  0  0  0  0  0  0
    1.0170    1.3660   -0.3710 C   0  0  0  0  0  0  0  0  0  0  0  0
    1.9480    2.3830   -0.1250 C   0  0  0  0  0  0  0  0  0  0  0  0
    3.2750    2.0200   -0.0320 C   0  0  0  0  0  0  0  0  0  0  0  0
    4.6140    3.3540    0.3040 Br  0  0  0  0  0  0  0  0  0  0  0  0
    3.6550    0.6950   -0.1790 C   0  0  0  0  0  0  0  0  0  0  0  0
    4.9940    0.3850   -0.0810 C   0  0  0  0  0  0  0  0  0  0  0  0
    5.4520   -0.9060   -0.2200 C   0  0  0  0  0  0  0  0  0  0  0  0
    4.5130   -1.8860   -0.4620 C   0  0  0  0  0  0  0  0  0  0  0  0
    3.1740   -1.5630   -0.5570 C   0  0  0  0  0  0  0  0  0  0  0  0
    2.6980   -0.2750   -0.4200 C   0  0  0  0  0  0  0  0  0  0  0  0
  1  2  2  0
  2  3  2  0
  2  4  1  6
  2 12  1  0
  4  5  1  0
  5  6  1  0
  6  7  2  0
  6 11  1  0
  7  8  1  0
  8  9  2  0
  9 10  1  0
 10 11  2  0
 12 13  2  0
 12 22  1  0
 13 14  1  0
 14 15  2  0
 15 16  1  0
 15 17  1  0
 17 18  2  0
 17 22  1  0
 18 19  1  0
 19 20  2  0
 20 21  1  0
 21 22  2  0
M  END
