
     RDKit          3D

 35 37  0  0  0  0  0  0  0  0999 V2000
    2.3170   -2.9760    2.1270 C   0  0  0  0  0  0  0  0  0  0  0  0
    1.6100   -1.6880    2.4610 C   0  0  0  0  0  0  0  0  0  0  0  0
    1.0400   -1.0400    1.2510 C   0  0  0  0  0  0  0  0  0  0  0  0
   -0.2530   -1.0750    0.9340 N   0  0  0  0  0  0  0  0  0  0  0  0
   -0.5060   -0.4200   -0.2020 C   0  0  0  0  0  0  0  0  0  0  0  0
   -1.7830   -0.2410   -0.8740 C   0  0  0  0  0  0  0  0  0  0  0  0
   -1.8720    0.4140   -1.9640 O   0  0  0  0  0  0  0  0  0  0  0  0
   -2.9750   -0.7590   -0.3910 O   0  0  0  0  0  0  0  0  0  0  0  0
   -4.2330   -0.5830   -1.0590 C   0  0  1  0  0  0  0  0  0  0  0  0
   -4.6620   -1.9250   -1.5270 C   0  0  0  0  0  0  0  0  0  0  0  0
   -5.1820    0.1830   -0.2650 C   0  0  0  0  0  0  0  0  0  0  0  0
   -6.4960   -0.1980   -0.1640 C   0  0  0  0  0  0  0  0  0  0  0  0
   -7.4320    0.5200    0.5800 C   0  0  0  0  0  0  0  0  0  0  0  0
   -8.7250    0.1100    0.6560 F   0  0  0  0  0  0  0  0  0  0  0  0
   -7.0210    1.6440    1.2320 C   0  0  0  0  0  0  0  0  0  0  0  0
   -8.2000    2.5610    2.1780 Cl  0  0  0  0  0  0  0  0  0  0  0  0
   -5.7200    2.0550    1.1540 C   0  0  0  0  0  0  0  0  0  0  0  0
   -4.8190    1.3450    0.4250 C   0  0  0  0  0  0  0  0  0  0  0  0
   -3.5060    1.7490    0.3390 O   0  0  0  0  0  0  0  0  0  0  0  0
    0.7090    0.0670   -0.6400 C   0  0  0  0  0  0  0  0  0  0  0  0
    0.8350    0.8470   -1.8670 C   0  0  0  0  0  0  0  0  0  0  0  0
    0.7240    2.1220   -1.8540 O   0  0  0  0  0  0  0  0  0  0  0  0
    1.0720    0.2720   -3.0670 F   0  0  0  0  0  0  0  0  0  0  0  0
    1.6810   -0.3090    0.2510 C   0  0  0  0  0  0  0  0  0  0  0  0
    3.0960   -0.0550    0.2420 C   0  0  0  0  0  0  0  0  0  0  0  0
    3.8310   -0.4730    1.1850 O   0  0  0  0  0  0  0  0  0  0  0  0
    3.7560    0.6580   -0.7850 N   0  0  0  0  0  0  0  0  0  0  0  0
    5.1390    0.9050   -0.7980 C   0  0  0  0  0  0  0  0  0  0  0  0
    5.9880    0.0210   -1.4130 C   0  0  0  0  0  0  0  0  0  0  0  0
    5.4890   -1.0940   -2.0090 F   0  0  0  0  0  0  0  0  0  0  0  0
    7.3690    0.2450   -1.4380 C   0  0  0  0  0  0  0  0  0  0  0  0
    7.8600    1.3800   -0.8270 C   0  0  0  0  0  0  0  0  0  0  0  0
    7.0260    2.2810   -0.2040 C   0  0  0  0  0  0  0  0  0  0  0  0
    5.6490    2.0250   -0.1980 C   0  0  0  0  0  0  0  0  0  0  0  0
    4.8290    2.9150    0.4180 F   0  0  0  0  0  0  0  0  0  0  0  0
  1  2  1  0
  2  3  1  0
  3  4  1  0
  3 24  2  0
  4  5  1  0
  5  6  1  0
  5 20  2  0
  6  7  2  0
  6  8  1  0
  8  9  1  0
  9 10  1  1
  9 11  1  0
 11 12  2  0
 11 18  1  0
 12 13  1  0
 13 14  1  0
 13 15  2  0
 15 16  1  0
 15 17  1  0
 17 18  2  0
 18 19  1  0
 20 21  1  0
 20 24  1  0
 21 22  2  0
 21 23  1  0
 24 25  1  0
 25 26  2  0
 25 27  1  0
 27 28  1  0
 28 29  2  0
 28 34  1  0
 29 30  1  0
 29 31  1  0
 31 32  2  0
 32 33  1  0
 33 34  2  0
 34 35  1  0
M  END
