
     RDKit          3D

 37 40  0  0  0  0  0  0  0  0999 V2000
   -2.5110    4.5930    0.4020 C   0  0  0  0  0  0  0  0  0  0  0  0
   -1.4950    3.5970    0.5820 N   0  0  0  0  0  0  0  0  0  0  0  0
   -0.6590    3.6250    1.7510 C   0  0  0  0  0  0  0  0  0  0  0  0
   -1.3140    2.6010   -0.3740 N   0  0  0  0  0  0  0  0  0  0  0  0
   -1.8790    1.4630   -0.2530 C   0  0  0  0  0  0  0  0  0  0  0  0
   -1.6070    0.4750   -1.3470 C   0  0  0  0  0  0  0  0  0  0  0  0
   -1.2580   -0.8190   -0.7640 N   0  0  0  0  0  0  0  0  0  0  0  0
   -0.2000   -1.5360   -1.3920 C   0  0  0  0  0  0  0  0  0  0  0  0
    1.1720   -1.2230   -0.8440 C   0  0  0  0  0  0  0  0  0  0  0  0
    2.1580   -1.8050   -1.3760 O   0  0  0  0  0  0  0  0  0  0  0  0
    1.3220   -0.3240    0.2090 N   0  0  0  0  0  0  0  0  0  0  0  0
    2.5430    0.0620    0.8040 C   0  0  0  0  0  0  0  0  0  0  0  0
    2.4690    0.8070    1.9960 C   0  0  0  0  0  0  0  0  0  0  0  0
    3.6090    1.2250    2.6160 C   0  0  0  0  0  0  0  0  0  0  0  0
    4.8550    0.9380    2.1080 C   0  0  0  0  0  0  0  0  0  0  0  0
    4.9360    0.2210    0.9610 C   0  0  0  0  0  0  0  0  0  0  0  0
    6.2300   -0.1030    0.3840 C   0  0  0  0  0  0  0  0  0  0  0  0
    7.3810   -0.3240    1.0930 C   0  0  0  0  0  0  0  0  0  0  0  0
    8.3310   -0.5840    0.1780 N   0  0  0  0  0  0  0  0  0  0  0  0
    7.8400   -0.5380   -1.0420 N   0  0  0  0  0  0  0  0  0  0  0  0
    8.6150   -0.7740   -2.2410 C   0  0  0  0  0  0  0  0  0  0  0  0
    6.5280   -0.2380   -0.9340 C   0  0  0  0  0  0  0  0  0  0  0  0
    3.7740   -0.2270    0.2940 C   0  0  0  0  0  0  0  0  0  0  0  0
   -1.9060   -1.3540    0.3730 C   0  0  0  0  0  0  0  0  0  0  0  0
   -1.1940   -2.3290    0.8490 O   0  0  0  0  0  0  0  0  0  0  0  0
   -3.0890   -1.1550    1.1620 C   0  0  2  0  0  0  0  0  0  0  0  0
   -4.1970   -2.1190    1.0020 C   0  0  0  0  0  0  0  0  0  0  0  0
   -4.8950   -2.2380   -0.2820 C   0  0  0  0  0  0  0  0  0  0  0  0
   -4.4210   -2.9100   -1.3810 C   0  0  0  0  0  0  0  0  0  0  0  0
   -2.9390   -3.8420   -1.3260 Cl  0  0  0  0  0  0  0  0  0  0  0  0
   -5.1240   -2.9640   -2.5910 C   0  0  0  0  0  0  0  0  0  0  0  0
   -6.3350   -2.3360   -2.7170 C   0  0  0  0  0  0  0  0  0  0  0  0
   -6.8040   -1.6640   -1.5960 C   0  0  0  0  0  0  0  0  0  0  0  0
   -6.1450   -1.5950   -0.4120 C   0  0  0  0  0  0  0  0  0  0  0  0
   -6.8300   -0.8050    0.9890 Cl  0  0  0  0  0  0  0  0  0  0  0  0
   -3.6880    0.2380    1.0120 C   0  0  0  0  0  0  0  0  0  0  0  0
   -2.6870    1.2720    0.9000 N   0  0  0  0  0  0  0  0  0  0  0  0
  1  2  1  0
  2  3  1  0
  2  4  1  0
  4  5  2  3
  5  6  1  0
  5 37  1  0
  6  7  1  0
  7  8  1  0
  7 24  1  0
  8  9  1  0
  9 10  2  0
  9 11  1  0
 11 12  1  0
 12 13  2  0
 12 23  1  0
 13 14  1  0
 14 15  2  0
 15 16  1  0
 16 17  1  0
 16 23  2  0
 17 18  1  0
 17 22  2  0
 18 19  2  0
 19 20  1  0
 20 21  1  0
 20 22  1  0
 24 25  2  0
 24 26  1  0
 26 27  1  6
 26 36  1  0
 27 28  1  0
 28 29  2  0
 28 34  1  0
 29 30  1  0
 29 31  1  0
 31 32  2  0
 32 33  1  0
 33 34  2  0
 34 35  1  0
 36 37  1  0
M  END
