
     RDKit          3D

 36 40  0  0  0  0  0  0  0  0999 V2000
   -0.2860   -4.5650    2.3890 C   0  0  0  0  0  0  0  0  0  0  0  0
   -1.6450   -3.9100    2.3540 C   0  0  0  0  0  0  0  0  0  0  0  0
   -1.6350   -2.7590    1.3620 C   0  0  0  0  0  0  0  0  0  0  0  0
   -0.6110   -2.5560    0.7910 O   0  0  0  0  0  0  0  0  0  0  0  0
   -2.7640   -1.9840    1.1340 N   0  0  0  0  0  0  0  0  0  0  0  0
   -3.0830   -0.8710    0.3680 C   0  0  0  0  0  0  0  0  0  0  0  0
   -2.2730   -0.1620   -0.3570 C   0  0  0  0  0  0  0  0  0  0  0  0
   -0.8130   -0.2180   -0.6360 C   0  0  0  0  0  0  0  0  0  0  0  0
    0.2030   -0.5600    0.1440 N   0  0  0  0  0  0  0  0  0  0  0  0
    1.4590   -0.5410   -0.3140 C   0  0  0  0  0  0  0  0  0  0  0  0
    2.6250   -0.9260    0.5500 C   0  0  0  0  0  0  0  0  0  0  0  0
    3.1660    0.2750    1.2820 C   0  0  0  0  0  0  0  0  0  0  0  0
    3.6550    1.3740    0.4000 C   0  0  0  0  0  0  0  0  0  0  0  0
    4.6790    1.0590   -0.4480 O   0  0  0  0  0  0  0  0  0  0  0  0
    5.8390    0.6380    0.1350 C   0  0  1  0  0  0  0  0  0  0  0  0
    6.1230   -0.7710   -0.3360 C   0  0  0  0  0  0  0  0  0  0  0  0
    7.5940   -1.0320   -0.5490 C   0  0  0  0  0  0  0  0  0  0  0  0
    8.3160   -0.4480    0.6670 C   0  0  0  0  0  0  0  0  0  0  0  0
    8.2600    1.0520    0.5110 C   0  0  0  0  0  0  0  0  0  0  0  0
    7.0270    1.5060   -0.2290 C   0  0  0  0  0  0  0  0  0  0  0  0
    1.7100   -0.1540   -1.6350 C   0  0  0  0  0  0  0  0  0  0  0  0
    0.6730    0.2100   -2.4720 C   0  0  0  0  0  0  0  0  0  0  0  0
   -0.6010    0.1780   -1.9610 C   0  0  0  0  0  0  0  0  0  0  0  0
   -1.8880    0.5660   -2.4520 N   0  0  0  0  0  0  0  0  0  0  0  0
   -2.6450    1.0090   -1.2430 C   0  0  1  0  0  0  0  0  0  0  0  0
   -4.0580    1.1760   -1.5080 C   0  0  2  0  0  0  0  0  0  0  0  0
   -4.4000    2.6460   -1.6910 C   0  0  0  0  0  0  0  0  0  0  0  0
   -4.1000    3.5040   -0.5170 C   0  0  0  0  0  0  0  0  0  0  0  0
   -4.7830    3.1570    0.6980 N   0  0  0  0  0  0  0  0  0  0  0  0
   -4.9620    0.4730   -0.6150 C   0  0  0  0  0  0  0  0  0  0  0  0
   -6.3020    0.7480   -0.6300 C   0  0  0  0  0  0  0  0  0  0  0  0
   -7.2240    0.0910    0.1460 C   0  0  0  0  0  0  0  0  0  0  0  0
   -8.5930    0.4500    0.0590 N   0  0  0  0  0  0  0  0  0  0  0  0
   -6.8160   -0.8870    0.9800 C   0  0  0  0  0  0  0  0  0  0  0  0
   -5.4380   -1.1960    1.0200 C   0  0  0  0  0  0  0  0  0  0  0  0
   -4.5410   -0.5150    0.2270 C   0  0  0  0  0  0  0  0  0  0  0  0
  1  2  1  0
  2  3  1  0
  3  4  2  0
  3  5  1  0
  5  6  1  0
  6  7  2  0
  6 36  1  0
  7  8  1  0
  7 25  1  0
  8  9  2  0
  8 23  1  0
  9 10  1  0
 10 11  1  0
 10 21  2  0
 11 12  1  0
 12 13  1  0
 13 14  1  0
 15 14  1  6
 15 16  1  0
 15 20  1  0
 16 17  1  0
 17 18  1  0
 18 19  1  0
 19 20  1  0
 21 22  1  0
 22 23  2  0
 23 24  1  0
 25 24  1  6
 25 26  1  0
 26 27  1  1
 26 30  1  0
 27 28  1  0
 28 29  1  0
 30 31  2  0
 30 36  1  0
 31 32  1  0
 32 33  1  0
 32 34  2  0
 34 35  1  0
 35 36  2  0
M  CHG  1  29   1
M  END
