
     RDKit          3D

 36 40  0  0  0  0  0  0  0  0999 V2000
    0.8820    2.1120   -2.6280 C   0  0  0  0  0  0  0  0  0  0  0  0
    0.9090    0.9540   -1.6390 C   0  0  2  0  0  0  0  0  0  0  0  0
    0.1470    1.2930   -0.4760 N   0  0  0  0  0  0  0  0  0  0  0  0
   -1.0430    2.0450   -0.7060 C   0  0  0  0  0  0  0  0  0  0  0  0
   -2.1000    1.1350   -1.2200 C   0  0  0  0  0  0  0  0  0  0  0  0
   -2.6470    1.3420   -2.4690 C   0  0  0  0  0  0  0  0  0  0  0  0
   -3.6340    0.5250   -3.0000 C   0  0  0  0  0  0  0  0  0  0  0  0
   -4.0750   -0.5230   -2.2480 C   0  0  0  0  0  0  0  0  0  0  0  0
   -3.5640   -0.7740   -0.9980 C   0  0  0  0  0  0  0  0  0  0  0  0
   -4.0710   -1.9040   -0.2240 C   0  0  1  0  0  0  0  0  0  0  0  0
   -3.0100   -2.7160    0.4430 C   0  0  0  0  0  0  0  0  0  0  0  0
   -3.7180   -3.8880    1.0670 C   0  0  0  0  0  0  0  0  0  0  0  0
   -3.3590   -5.0380    0.8420 O   0  0  0  0  0  0  0  0  0  0  0  0
   -4.8300   -3.6210    1.9390 N   0  0  0  0  0  0  0  0  0  0  0  0
   -5.5290   -2.3990    1.7010 C   0  0  0  0  0  0  0  0  0  0  0  0
   -6.5960   -2.0390    2.5390 C   0  0  0  0  0  0  0  0  0  0  0  0
   -7.2750   -0.8520    2.3810 C   0  0  0  0  0  0  0  0  0  0  0  0
   -6.9020    0.0100    1.3730 C   0  0  0  0  0  0  0  0  0  0  0  0
   -7.6250    1.3200    1.1760 C   0  0  0  0  0  0  0  0  0  0  0  0
   -6.8770    2.2820    1.9890 N   0  0  0  0  0  0  0  0  0  0  0  0
   -5.8600   -0.3520    0.5610 C   0  0  0  0  0  0  0  0  0  0  0  0
   -5.1590   -1.5430    0.6990 C   0  0  0  0  0  0  0  0  0  0  0  0
   -2.5860    0.0540   -0.5000 C   0  0  0  0  0  0  0  0  0  0  0  0
    2.3140    0.5990   -1.3240 C   0  0  0  0  0  0  0  0  0  0  0  0
    2.9260   -0.5170   -1.8490 C   0  0  0  0  0  0  0  0  0  0  0  0
    4.2290   -0.8450   -1.5610 C   0  0  0  0  0  0  0  0  0  0  0  0
    5.0200   -0.0600   -0.7100 C   0  0  0  0  0  0  0  0  0  0  0  0
    6.3580   -0.4520   -0.4500 N   0  0  0  0  0  0  0  0  0  0  0  0
    7.2860    0.2010    0.3760 C   0  0  0  0  0  0  0  0  0  0  0  0
    7.0020    1.2290    0.9790 O   0  0  0  0  0  0  0  0  0  0  0  0
    8.6270   -0.3010    0.5630 N   0  0  0  0  0  0  0  0  0  0  0  0
    9.5590    0.3830    1.4130 C   0  0  1  0  0  0  0  0  0  0  0  0
   10.4140   -0.5330    2.3030 C   0  0  0  0  0  0  0  0  0  0  0  0
   11.0230    0.2800    1.2270 C   0  0  0  0  0  0  0  0  0  0  0  0
    4.4150    1.0530   -0.1840 C   0  0  0  0  0  0  0  0  0  0  0  0
    3.0800    1.3740   -0.4900 C   0  0  0  0  0  0  0  0  0  0  0  0
  2  1  1  6
  2  3  1  0
  2 24  1  0
  3  4  1  0
  4  5  1  0
  5  6  2  0
  5 23  1  0
  6  7  1  0
  7  8  2  0
  8  9  1  0
 10  9  1  1
  9 23  2  0
 10 11  1  0
 10 22  1  0
 11 12  1  0
 12 13  2  0
 12 14  1  0
 14 15  1  0
 15 16  2  0
 15 22  1  0
 16 17  1  0
 17 18  2  0
 18 19  1  0
 18 21  1  0
 19 20  1  0
 21 22  2  0
 24 25  2  0
 24 36  1  0
 25 26  1  0
 26 27  2  0
 27 28  1  0
 27 35  1  0
 28 29  1  0
 29 30  2  0
 29 31  1  0
 32 31  1  6
 32 33  1  0
 32 34  1  0
 33 34  1  0
 35 36  2  0
M  CHG  1   3   1
M  END
