
     RDKit          3D

 36 40  0  0  0  0  0  0  0  0999 V2000
   -1.6340    0.4040    1.5920 C   0  0  0  0  0  0  0  0  0  0  0  0
   -2.2160    0.4590    0.1860 C   0  0  2  0  0  0  0  0  0  0  0  0
   -3.6670    0.0850    0.2170 C   0  0  0  0  0  0  0  0  0  0  0  0
   -4.4930    0.9430   -0.1460 O   0  0  0  0  0  0  0  0  0  0  0  0
   -4.1020   -1.1930    0.6400 N   0  0  0  0  0  0  0  0  0  0  0  0
   -5.4360   -1.6450    0.7120 C   0  0  0  0  0  0  0  0  0  0  0  0
   -5.6120   -3.0110    0.9940 C   0  0  0  0  0  0  0  0  0  0  0  0
   -6.8840   -3.5340    1.0890 C   0  0  0  0  0  0  0  0  0  0  0  0
   -8.0140   -2.7640    0.9170 C   0  0  0  0  0  0  0  0  0  0  0  0
   -7.8530   -1.4070    0.6360 C   0  0  0  0  0  0  0  0  0  0  0  0
   -9.0190   -0.5120    0.4380 C   0  0  0  0  0  0  0  0  0  0  0  0
   -9.4450   -0.4280   -0.9420 N   0  0  0  0  0  0  0  0  0  0  0  0
   -6.5600   -0.8970    0.5440 C   0  0  0  0  0  0  0  0  0  0  0  0
   -1.4210   -0.4400   -0.6760 C   0  0  0  0  0  0  0  0  0  0  0  0
   -0.6390    0.4590   -1.5440 C   0  0  0  0  0  0  0  0  0  0  0  0
    0.3350    0.1170   -2.2500 O   0  0  0  0  0  0  0  0  0  0  0  0
   -1.1790    1.7830   -1.4460 N   0  0  0  0  0  0  0  0  0  0  0  0
   -0.9180    2.9020   -2.3190 C   0  0  0  0  0  0  0  0  0  0  0  0
    0.1540    3.8310   -1.9150 C   0  0  0  0  0  0  0  0  0  0  0  0
    1.5180    3.3080   -1.7050 C   0  0  0  0  0  0  0  0  0  0  0  0
    1.6790    2.3760   -0.6180 N   0  0  0  0  0  0  0  0  0  0  0  0
    2.9240    1.7160   -0.4150 C   0  0  0  0  0  0  0  0  0  0  0  0
    3.1340    0.8420    0.6290 C   0  0  0  0  0  0  0  0  0  0  0  0
    4.3720    0.2090    0.7950 C   0  0  0  0  0  0  0  0  0  0  0  0
    5.4200    0.4200   -0.0550 C   0  0  0  0  0  0  0  0  0  0  0  0
    6.7420   -0.2150    0.0360 C   0  0  2  0  0  0  0  0  0  0  0  0
    6.6880   -1.5160   -0.7740 C   0  0  0  0  0  0  0  0  0  0  0  0
    5.7240   -2.4380   -0.1160 C   0  0  0  0  0  0  0  0  0  0  0  0
    6.1600   -2.7870    1.2660 C   0  0  0  0  0  0  0  0  0  0  0  0
    6.9250   -1.7030    1.9300 C   0  0  0  0  0  0  0  0  0  0  0  0
    7.1950   -0.5360    1.3850 C   0  0  0  0  0  0  0  0  0  0  0  0
    7.9320   -0.0730    2.6020 C   0  0  0  0  0  0  0  0  0  0  0  0
    7.6130   -1.3550    3.1470 N   0  0  0  0  0  0  0  0  0  0  0  0
    5.2030    1.3080   -1.1140 C   0  0  0  0  0  0  0  0  0  0  0  0
    3.9830    1.9280   -1.2720 C   0  0  0  0  0  0  0  0  0  0  0  0
   -2.0370    1.8460   -0.3090 C   0  0  0  0  0  0  0  0  0  0  0  0
  2  1  1  1
  2  3  1  0
  2 14  1  0
  2 36  1  0
  3  4  2  0
  3  5  1  0
  5  6  1  0
  6  7  2  0
  6 13  1  0
  7  8  1  0
  8  9  2  0
  9 10  1  0
 10 11  1  0
 10 13  2  0
 11 12  1  0
 14 15  1  0
 15 16  2  0
 15 17  1  0
 17 18  1  0
 17 36  1  0
 18 19  1  0
 19 20  1  0
 20 21  1  0
 21 22  1  0
 22 23  2  0
 22 35  1  0
 23 24  1  0
 24 25  2  0
 26 25  1  1
 25 34  1  0
 26 27  1  0
 26 31  1  0
 27 28  1  0
 28 29  1  0
 29 30  1  0
 30 31  2  0
 30 33  1  0
 31 32  1  0
 32 33  1  0
 34 35  2  0
M  CHG  1  12   1
M  END
