
     RDKit          3D

 23 25  0  0  0  0  0  0  0  0999 V2000
    0.4730   -1.4040   -2.1550 C   0  0  0  0  0  0  0  0  0  0  0  0
   -0.2880   -1.2160   -0.9400 N   0  0  2  0  0  0  0  0  0  0  0  0
   -1.5740   -1.8810   -1.0340 C   0  0  0  0  0  0  0  0  0  0  0  0
   -2.4220   -1.6150    0.1390 C   0  0  0  0  0  0  0  0  0  0  0  0
   -3.0460   -2.5340    0.8220 C   0  0  0  0  0  0  0  0  0  0  0  0
   -3.8040   -2.1350    1.8960 O   0  0  0  0  0  0  0  0  0  0  0  0
   -3.8860   -0.8270    2.3640 C   0  0  0  0  0  0  0  0  0  0  0  0
   -3.1630    0.1760    1.5570 C   0  0  0  0  0  0  0  0  0  0  0  0
   -2.4780   -0.1740    0.5180 C   0  0  0  0  0  0  0  0  0  0  0  0
   -1.7070    0.6490   -0.4110 C   0  0  1  0  0  0  0  0  0  0  0  0
   -1.8620    2.1160   -0.3430 C   0  0  0  0  0  0  0  0  0  0  0  0
   -3.2510    2.6250   -0.6380 C   0  0  0  0  0  0  0  0  0  0  0  0
   -3.6380    2.2500   -1.9490 O   0  0  0  0  0  0  0  0  0  0  0  0
   -0.3140    0.1410   -0.4850 C   0  0  1  0  0  0  0  0  0  0  0  0
    0.5020    0.2740    0.7690 C   0  0  2  0  0  0  0  0  0  0  0  0
    0.4450    1.5920    1.2730 O   0  0  0  0  0  0  0  0  0  0  0  0
    1.9850    0.0360    0.5710 C   0  0  2  0  0  0  0  0  0  0  0  0
    2.5890    0.1160    1.9830 C   0  0  0  0  0  0  0  0  0  0  0  0
    2.6430    1.1500   -0.2120 C   0  0  0  0  0  0  0  0  0  0  0  0
    3.7540    0.6050   -1.1020 C   0  0  0  0  0  0  0  0  0  0  0  0
    4.5460   -0.4730   -0.4010 C   0  0  0  0  0  0  0  0  0  0  0  0
    3.6570   -1.4560    0.3100 C   0  0  0  0  0  0  0  0  0  0  0  0
    2.3250   -1.2040    0.0830 O   0  0  0  0  0  0  0  0  0  0  0  0
  2  1  1  6
  2  3  1  0
  2 14  1  0
  3  4  1  0
  4  5  2  0
  4  9  1  0
  5  6  1  0
  6  7  1  0
  7  8  1  0
  8  9  2  0
  9 10  1  0
 10 11  1  1
 14 10  1  1
 11 12  1  0
 12 13  1  0
 14 15  1  0
 15 16  1  6
 15 17  1  0
 17 18  1  1
 17 19  1  0
 17 23  1  0
 19 20  1  0
 20 21  1  0
 21 22  1  0
 22 23  1  0
M  CHG  1   2   1
M  END
