
     RDKit          3D

 23 25  0  0  0  0  0  0  0  0999 V2000
    4.7330    2.3540    2.9610 C   0  0  0  0  0  0  0  0  0  0  0  0
    5.2020    1.6520    1.8700 O   0  0  0  0  0  0  0  0  0  0  0  0
    4.2370    1.4330    0.8920 C   0  0  0  0  0  0  0  0  0  0  0  0
    3.0490    0.6440    1.3800 C   0  0  0  0  0  0  0  0  0  0  0  0
    2.0630    0.3730    0.5340 O   0  0  0  0  0  0  0  0  0  0  0  0
    2.1250   -0.3700   -0.5740 C   0  0  2  0  0  0  0  0  0  0  0  0
    2.5680   -1.8020   -0.3490 C   0  0  0  0  0  0  0  0  0  0  0  0
    3.0150    0.1720   -1.6440 C   0  0  0  0  0  0  0  0  0  0  0  0
    2.3430   -0.2790   -2.9210 C   0  0  0  0  0  0  0  0  0  0  0  0
    2.8230   -0.2010   -4.0210 O   0  0  0  0  0  0  0  0  0  0  0  0
    0.9950   -0.8390   -2.6270 C   0  0  1  0  0  0  0  0  0  0  0  0
    1.0160   -2.1780   -2.8150 O   0  0  0  0  0  0  0  0  0  0  0  0
    0.7640   -0.3270   -1.2720 C   0  0  1  0  0  0  0  0  0  0  0  0
   -0.3230   -0.9380   -0.4750 C   0  0  0  0  0  0  0  0  0  0  0  0
   -1.5940   -0.8740   -1.1780 N   0  0  1  0  0  0  0  0  0  0  0  0
   -2.3300   -2.1010   -1.0780 C   0  0  0  0  0  0  0  0  0  0  0  0
   -3.3640   -2.1540   -0.0230 C   0  0  0  0  0  0  0  0  0  0  0  0
   -3.2760   -0.9970    0.9610 C   0  0  0  0  0  0  0  0  0  0  0  0
   -3.3830    0.2400    0.1290 C   0  0  1  0  0  0  0  0  0  0  0  0
   -3.4060    1.4290    1.0610 C   0  0  2  0  0  0  0  0  0  0  0  0
   -4.5690    1.4150    2.0400 C   0  0  0  0  0  0  0  0  0  0  0  0
   -4.5010    2.4290    0.9460 C   0  0  0  0  0  0  0  0  0  0  0  0
   -2.3140    0.3120   -0.8870 C   0  0  0  0  0  0  0  0  0  0  0  0
  1  2  1  0
  2  3  1  0
  3  4  1  0
  4  5  1  0
  5  6  1  0
  6  7  1  1
  6  8  1  0
  6 13  1  0
  8  9  1  0
  9 10  2  0
  9 11  1  0
 11 12  1  1
 11 13  1  0
 13 14  1  1
 15 14  1  1
 15 16  1  0
 15 23  1  0
 16 17  1  0
 17 18  1  0
 19 18  1  1
 19 20  1  0
 19 23  1  0
 20 21  1  1
 20 22  1  0
 21 22  1  0
M  CHG  1  15   1
M  END
