
     RDKit          3D

 17 19  0  0  0  0  0  0  0  0999 V2000
    2.0940    0.0840   -1.2900 N   0  0  0  0  0  0  0  0  0  0  0  0
    1.9230    0.3700    0.0880 C   0  0  0  0  0  0  0  0  0  0  0  0
    0.7870    0.6920    0.7690 C   0  0  0  0  0  0  0  0  0  0  0  0
   -0.5730    0.8580    0.2340 C   0  0  0  0  0  0  0  0  0  0  0  0
   -1.3890    2.0040    0.1970 C   0  0  0  0  0  0  0  0  0  0  0  0
   -2.5750    1.6300   -0.3090 N   0  0  0  0  0  0  0  0  0  0  0  0
   -2.5960    0.3400   -0.6040 N   0  0  0  0  0  0  0  0  0  0  0  0
   -3.6830   -0.4870   -1.1530 C   0  0  1  0  0  0  0  0  0  0  0  0
   -4.3200   -1.3070   -0.0130 C   0  0  0  0  0  0  0  0  0  0  0  0
   -4.9260   -0.0830    0.3660 O   0  0  0  0  0  0  0  0  0  0  0  0
   -5.0470    0.1660   -0.9920 C   0  0  0  0  0  0  0  0  0  0  0  0
   -1.3830   -0.1700   -0.2840 C   0  0  0  0  0  0  0  0  0  0  0  0
    1.1240    0.8750    2.0690 N   0  0  0  0  0  0  0  0  0  0  0  0
    2.4480    0.6690    2.1960 N   0  0  0  0  0  0  0  0  0  0  0  0
    2.9780    0.3580    1.0040 C   0  0  0  0  0  0  0  0  0  0  0  0
    4.4290    0.1560    0.7400 C   0  0  0  0  0  0  0  0  0  0  0  0
    4.6130   -1.1410    0.1030 N   0  0  0  0  0  0  0  0  0  0  0  0
  1  2  1  0
  2  3  1  0
  2 15  2  0
  3  4  1  0
  3 13  2  0
  4  5  1  0
  4 12  2  0
  5  6  2  0
  6  7  1  0
  8  7  1  1
  7 12  1  0
  8  9  1  0
  8 11  1  0
  9 10  1  0
 10 11  1  0
 13 14  1  0
 14 15  1  0
 15 16  1  0
 16 17  1  0
M  CHG  1  17   1
M  END
