
     RDKit          3D

 17 18  0  0  0  0  0  0  0  0999 V2000
    0.2610    1.3530    0.0720 N   0  0  0  0  0  0  0  0  0  0  0  0
    0.7500    0.2600   -0.6660 C   0  0  0  0  0  0  0  0  0  0  0  0
    2.0770    0.4480   -1.2220 N   0  0  0  0  0  0  0  0  0  0  0  0
    3.0670    1.2910   -0.6480 C   0  0  0  0  0  0  0  0  0  0  0  0
    3.5830    0.7570    0.6510 C   0  0  0  0  0  0  0  0  0  0  0  0
    4.1580   -0.5000    0.4760 O   0  0  0  0  0  0  0  0  0  0  0  0
    0.1460   -0.8730   -0.9040 C   0  0  0  0  0  0  0  0  0  0  0  0
    0.8300   -1.8640   -1.6890 N   0  0  0  0  0  0  0  0  0  0  0  0
    0.3130   -2.9800   -1.9670 N   0  0  0  0  0  0  0  0  0  0  0  0
   -0.9850   -3.3060   -1.5070 C   0  0  0  0  0  0  0  0  0  0  0  0
   -1.6770   -2.4480   -0.7790 C   0  0  0  0  0  0  0  0  0  0  0  0
   -1.1430   -1.1660   -0.4320 N   0  0  0  0  0  0  0  0  0  0  0  0
   -1.8620   -0.2450    0.3480 C   0  0  0  0  0  0  0  0  0  0  0  0
   -2.8860    0.4510   -0.1310 C   0  0  0  0  0  0  0  0  0  0  0  0
   -3.4390    1.3030    0.8430 N   0  0  0  0  0  0  0  0  0  0  0  0
   -2.6570    1.0630    1.9830 C   0  0  0  0  0  0  0  0  0  0  0  0
   -1.7190    0.1620    1.7360 C   0  0  0  0  0  0  0  0  0  0  0  0
  1  2  1  0
  2  3  1  0
  2  7  2  3
  3  4  1  0
  4  5  1  0
  5  6  1  0
  7  8  1  0
  7 12  1  0
  8  9  2  0
  9 10  1  0
 10 11  2  0
 11 12  1  0
 12 13  1  0
 13 14  2  0
 13 17  1  0
 14 15  1  0
 15 16  1  0
 16 17  2  0
M  CHG  1  15   1
M  END
