
     RDKit          3D

 17 18  0  0  0  0  0  0  0  0999 V2000
   -5.1520    0.4750   -0.3610 C   0  0  0  0  0  0  0  0  0  0  0  0
   -3.7820    0.7950   -0.6200 N   0  0  0  0  0  0  0  0  0  0  0  0
   -2.8100    0.0400   -0.2390 C   0  0  0  0  0  0  0  0  0  0  0  0
   -3.1230   -1.1440    0.4590 N   0  0  0  0  0  0  0  0  0  0  0  0
   -1.4120    0.4200   -0.5340 C   0  0  0  0  0  0  0  0  0  0  0  0
   -0.3310   -0.2610   -0.2010 C   0  0  0  0  0  0  0  0  0  0  0  0
   -0.3670   -1.4970    0.5110 N   0  0  0  0  0  0  0  0  0  0  0  0
    0.8330    0.4110   -0.6510 N   0  0  0  0  0  0  0  0  0  0  0  0
    2.1850    0.1970   -0.2860 C   0  0  0  0  0  0  0  0  0  0  0  0
    2.8620   -0.8890   -0.5520 N   0  0  0  0  0  0  0  0  0  0  0  0
    4.1810   -0.7640   -0.0430 C   0  0  0  0  0  0  0  0  0  0  0  0
    5.1400   -1.6210   -0.1070 N   0  0  0  0  0  0  0  0  0  0  0  0
    4.2540    0.5480    0.5840 C   0  0  0  0  0  0  0  0  0  0  0  0
    3.0580    1.1280    0.4400 C   0  0  0  0  0  0  0  0  0  0  0  0
    0.4120    1.4140   -1.6010 C   0  0  0  0  0  0  0  0  0  0  0  0
   -1.0110    1.6230   -1.2480 C   0  0  0  0  0  0  0  0  0  0  0  0
   -1.7160    2.6200   -1.5070 O   0  0  0  0  0  0  0  0  0  0  0  0
  1  2  1  0
  2  3  2  3
  3  4  1  0
  3  5  1  0
  5  6  2  0
  5 16  1  0
  6  7  1  0
  6  8  1  0
  8  9  1  0
  8 15  1  0
  9 10  2  0
  9 14  1  0
 10 11  1  0
 11 12  2  0
 11 13  1  0
 13 14  2  0
 15 16  1  0
 16 17  2  0
M  CHG  1  12   1
M  END
