
     RDKit          3D

 17 19  0  0  0  0  0  0  0  0999 V2000
    2.7450   -1.7740    1.2690 O   0  0  0  0  0  0  0  0  0  0  0  0
    3.3230   -0.6830    0.6340 C   0  0  0  0  0  0  0  0  0  0  0  0
    4.6640   -0.5230    0.6960 N   0  0  0  0  0  0  0  0  0  0  0  0
    5.2830    0.4980    0.1110 C   0  0  0  0  0  0  0  0  0  0  0  0
    4.5170    1.4160   -0.5780 C   0  0  0  0  0  0  0  0  0  0  0  0
    3.1700    1.2590   -0.6430 N   0  0  0  0  0  0  0  0  0  0  0  0
    2.5510    0.2260   -0.0510 C   0  0  0  0  0  0  0  0  0  0  0  0
    1.1020    0.0960   -0.1460 C   0  0  0  0  0  0  0  0  0  0  0  0
    0.3770   -0.9110    0.4160 N   0  0  0  0  0  0  0  0  0  0  0  0
   -0.9280   -0.7100    0.1240 C   0  0  0  0  0  0  0  0  0  0  0  0
   -1.0260    0.4280   -0.6240 C   0  0  0  0  0  0  0  0  0  0  0  0
    0.2260    0.8970   -0.7730 N   0  0  0  0  0  0  0  0  0  0  0  0
   -2.1700    1.1380   -1.2270 C   0  0  0  0  0  0  0  0  0  0  0  0
   -3.4200    0.4950   -1.0480 N   0  0  0  0  0  0  0  0  0  0  0  0
   -3.7050    0.0430    0.2720 C   0  0  0  0  0  0  0  0  0  0  0  0
   -3.4030   -1.4400    0.3580 C   0  0  0  0  0  0  0  0  0  0  0  0
   -1.9760   -1.5770    0.5560 N   0  0  0  0  0  0  0  0  0  0  0  0
  1  2  1  0
  2  3  2  0
  2  7  1  0
  3  4  1  0
  4  5  2  0
  5  6  1  0
  6  7  2  0
  7  8  1  0
  8  9  2  0
  8 12  1  0
  9 10  1  0
 10 11  2  0
 10 17  1  0
 11 12  1  0
 11 13  1  0
 13 14  1  0
 14 15  1  0
 15 16  1  0
 16 17  1  0
M  END
