
     RDKit          3D

 16 18  0  0  0  0  0  0  0  0999 V2000
   -4.3510    0.5880    0.8480 C   0  0  0  0  0  0  0  0  0  0  0  0
   -2.8640    0.5390    0.6310 C   0  0  0  0  0  0  0  0  0  0  0  0
   -1.9610    1.4100    1.1180 N   0  0  0  0  0  0  0  0  0  0  0  0
   -0.7200    1.0360    0.7090 C   0  0  0  0  0  0  0  0  0  0  0  0
    0.5020    1.5510    0.9110 N   0  0  0  0  0  0  0  0  0  0  0  0
    1.5990    0.9580    0.3700 C   0  0  0  0  0  0  0  0  0  0  0  0
    2.8340    1.4660    0.5660 N   0  0  0  0  0  0  0  0  0  0  0  0
    3.9310    0.8930    0.0380 C   0  0  0  0  0  0  0  0  0  0  0  0
    3.8650   -0.2480   -0.7360 C   0  0  0  0  0  0  0  0  0  0  0  0
    5.0470   -0.8360   -1.2850 N   0  0  0  0  0  0  0  0  0  0  0  0
    2.6210   -0.7990   -0.9610 C   0  0  0  0  0  0  0  0  0  0  0  0
    1.5110   -0.1830   -0.4020 C   0  0  0  0  0  0  0  0  0  0  0  0
    0.2820   -0.6950   -0.6010 N   0  0  0  0  0  0  0  0  0  0  0  0
   -0.8100   -0.1070   -0.0640 C   0  0  0  0  0  0  0  0  0  0  0  0
   -2.1590   -0.3980   -0.0980 C   0  0  0  0  0  0  0  0  0  0  0  0
   -2.7340   -1.5060   -0.7870 N   0  0  0  0  0  0  0  0  0  0  0  0
  1  2  1  0
  2  3  1  0
  2 15  2  0
  3  4  1  0
  4  5  2  0
  4 14  1  0
  5  6  1  0
  6  7  2  0
  6 12  1  0
  7  8  1  0
  8  9  2  0
  9 10  1  0
  9 11  1  0
 11 12  2  0
 12 13  1  0
 13 14  2  0
 14 15  1  0
 15 16  1  0
M  CHG  1  16   1
M  END
