
     RDKit          3D

 30 32  0  0  0  0  0  0  0  0999 V2000
    1.1850   -4.0840    1.9340 C   0  0  0  0  0  0  0  0  0  0  0  0
    0.6480   -3.0910    1.0860 O   0  0  0  0  0  0  0  0  0  0  0  0
    0.0870   -1.9160    1.5610 C   0  0  0  0  0  0  0  0  0  0  0  0
    0.0400   -1.6970    2.7980 O   0  0  0  0  0  0  0  0  0  0  0  0
   -0.4400   -0.9540    0.5880 C   0  0  2  0  0  0  0  0  0  0  0  0
    0.6450   -0.5080   -0.3240 C   0  0  0  0  0  0  0  0  0  0  0  0
    1.8930   -0.1430    0.0190 N   0  0  0  0  0  0  0  0  0  0  0  0
    2.5910    0.1980   -1.0780 C   0  0  0  0  0  0  0  0  0  0  0  0
    3.9720    0.6530   -1.1750 C   0  0  0  0  0  0  0  0  0  0  0  0
    4.7390    0.7800   -0.0400 C   0  0  0  0  0  0  0  0  0  0  0  0
    6.0640    1.2120   -0.0950 C   0  0  0  0  0  0  0  0  0  0  0  0
    6.5840    1.5100   -1.3230 C   0  0  0  0  0  0  0  0  0  0  0  0
    7.9050    1.9420   -1.3900 O   0  0  0  0  0  0  0  0  0  0  0  0
    5.8190    1.3830   -2.4490 C   0  0  0  0  0  0  0  0  0  0  0  0
    4.5410    0.9610   -2.3510 N   0  0  0  0  0  0  0  0  0  0  0  0
    1.7150    0.0250   -2.1050 N   0  0  0  0  0  0  0  0  0  0  0  0
    0.5810   -0.3900   -1.6280 O   0  0  0  0  0  0  0  0  0  0  0  0
   -1.0470    0.2670    1.2470 C   0  0  0  0  0  0  0  0  0  0  0  0
   -1.8370    0.8080    0.1530 N   0  0  0  0  0  0  0  0  0  0  0  0
   -2.7760    1.8040    0.6060 C   0  0  0  0  0  0  0  0  0  0  0  0
   -3.5540    2.3180   -0.5840 C   0  0  1  0  0  0  0  0  0  0  0  0
   -4.2630    1.3430   -1.2410 O   0  0  0  0  0  0  0  0  0  0  0  0
   -4.7740    3.6300   -0.0400 P   0  0  0  0  0  0  0  0  0  0  0  0
   -3.9940    5.1690    0.0010 O   0  0  0  0  0  0  0  0  0  0  0  0
   -5.4750    3.2300    1.4820 O   0  0  0  0  0  0  0  0  0  0  0  0
   -2.4790   -0.3320   -0.4710 C   0  0  0  0  0  0  0  0  0  0  0  0
   -1.5940   -1.5180   -0.1810 C   0  0  1  0  0  0  0  0  0  0  0  0
   -1.1330   -2.2280   -1.4060 C   0  0  0  0  0  0  0  0  0  0  0  0
   -2.3440   -2.5050    0.7030 C   0  0  0  0  0  0  0  0  0  0  0  0
   -2.8400   -1.9300    1.8480 O   0  0  0  0  0  0  0  0  0  0  0  0
  1  2  1  0
  2  3  1  0
  3  4  2  0
  5  3  1  1
  5  6  1  0
  5 18  1  0
  5 27  1  0
  6  7  2  0
  6 17  1  0
  7  8  1  0
  8  9  1  0
  8 16  2  0
  9 10  2  0
  9 15  1  0
 10 11  1  0
 11 12  2  0
 12 13  1  0
 12 14  1  0
 14 15  2  0
 16 17  1  0
 18 19  1  0
 19 20  1  0
 19 26  1  0
 20 21  1  0
 21 22  1  1
 21 23  1  0
 23 24  1  0
 23 25  1  0
 26 27  1  0
 27 28  1  6
 27 29  1  0
 29 30  1  0
M  END
