
     RDKit          3D

 31 33  0  0  0  0  0  0  0  0999 V2000
   -5.2900   -4.7300   -1.2920 O   0  0  0  0  0  0  0  0  0  0  0  0
   -4.3250   -4.7270   -2.1240 C   0  0  0  0  0  0  0  0  0  0  0  0
   -3.3050   -3.7140   -2.1080 C   0  0  0  0  0  0  0  0  0  0  0  0
   -3.3160   -2.7280   -1.2250 C   0  0  0  0  0  0  0  0  0  0  0  0
   -2.2900   -1.7010   -1.2020 C   0  0  0  0  0  0  0  0  0  0  0  0
   -2.1550   -0.6860   -0.4370 C   0  0  0  0  0  0  0  0  0  0  0  0
   -3.0020   -0.2310    0.6590 C   0  0  0  0  0  0  0  0  0  0  0  0
   -4.3010   -0.3260    0.7860 C   0  0  0  0  0  0  0  0  0  0  0  0
   -5.0390    0.1700    1.9480 C   0  0  0  0  0  0  0  0  0  0  0  0
   -6.3360    0.0940    2.1130 N   0  0  0  0  0  0  0  0  0  0  0  0
   -6.7270    0.6370    3.2820 O   0  0  0  0  0  0  0  0  0  0  0  0
   -5.6300    1.3610    3.8080 C   0  0  0  0  0  0  0  0  0  0  0  0
   -4.5670    0.7930    3.0670 O   0  0  0  0  0  0  0  0  0  0  0  0
   -2.1620    0.4550    1.6080 N   0  0  0  0  0  0  0  0  0  0  0  0
   -0.8220    0.4230    1.0900 C   0  0  0  0  0  0  0  0  0  0  0  0
    0.2630    0.4890    1.6460 O   0  0  0  0  0  0  0  0  0  0  0  0
   -1.0120    0.2800   -0.4080 C   0  0  1  0  0  0  0  0  0  0  0  0
    0.2440   -0.1680   -1.0330 C   0  0  0  0  0  0  0  0  0  0  0  0
    0.9070    1.0960   -1.4000 N   0  0  0  0  0  0  0  0  0  0  0  0
    2.2430    1.3320   -1.8350 C   0  0  0  0  0  0  0  0  0  0  0  0
    3.2020    1.6200   -0.7680 C   0  0  0  0  0  0  0  0  0  0  0  0
    2.8500    1.6550    0.4480 O   0  0  0  0  0  0  0  0  0  0  0  0
    4.5690    1.8690   -1.0880 N   0  0  0  0  0  0  0  0  0  0  0  0
    5.5740    2.1580   -0.1140 C   0  0  0  0  0  0  0  0  0  0  0  0
    5.7590    1.0550    0.9000 C   0  0  0  0  0  0  0  0  0  0  0  0
    6.2560   -0.5460    0.1430 P   0  0  0  0  0  0  0  0  0  0  0  0
    7.9000   -0.5780   -0.3440 O   0  0  0  0  0  0  0  0  0  0  0  0
    5.1680   -1.0890   -1.0630 O   0  0  0  0  0  0  0  0  0  0  0  0
   -0.0790    2.1020   -1.2490 C   0  0  0  0  0  0  0  0  0  0  0  0
    0.1210    3.3580   -1.3170 O   0  0  0  0  0  0  0  0  0  0  0  0
   -1.3240    1.4950   -1.0100 O   0  0  0  0  0  0  0  0  0  0  0  0
  1  2  2  0
  2  3  1  0
  3  4  2  3
  4  5  1  0
  5  6  2  3
  6  7  1  0
  6 17  1  0
  7  8  2  3
  7 14  1  0
  8  9  1  0
  9 10  2  0
  9 13  1  0
 10 11  1  0
 11 12  1  0
 12 13  1  0
 14 15  1  0
 15 16  2  0
 15 17  1  0
 17 18  1  6
 17 31  1  0
 18 19  1  0
 19 20  1  0
 19 29  1  0
 20 21  1  0
 21 22  2  0
 21 23  1  0
 23 24  1  0
 24 25  1  0
 25 26  1  0
 26 27  1  0
 26 28  1  0
 29 30  2  0
 29 31  1  0
M  END
