
     RDKit          3D

 31 33  0  0  0  0  0  0  0  0999 V2000
    7.8810   -0.3570    1.0880 O   0  0  0  0  0  0  0  0  0  0  0  0
    7.1580    0.5460    0.5460 C   0  0  0  0  0  0  0  0  0  0  0  0
    7.6840    1.8140    0.3750 O   0  0  0  0  0  0  0  0  0  0  0  0
    5.8060    0.1810    0.1510 C   0  0  0  0  0  0  0  0  0  0  0  0
    5.0850    1.0620   -0.6210 C   0  0  0  0  0  0  0  0  0  0  0  0
    3.7820    0.7420   -0.8420 C   0  0  0  0  0  0  0  0  0  0  0  0
    3.1610   -0.4240   -0.3190 C   0  0  0  0  0  0  0  0  0  0  0  0
    1.8110   -0.5390   -0.6380 N   0  0  0  0  0  0  0  0  0  0  0  0
    0.7840   -0.4550    0.4220 C   0  0  0  0  0  0  0  0  0  0  0  0
    1.1650   -0.3210    1.6210 O   0  0  0  0  0  0  0  0  0  0  0  0
   -0.6210   -0.4910    0.0260 C   0  0  2  0  0  0  0  0  0  0  0  0
   -1.2460   -1.7090   -0.5020 C   0  0  0  0  0  0  0  0  0  0  0  0
   -1.2440   -2.8160    0.5210 C   0  0  0  0  0  0  0  0  0  0  0  0
   -2.1610   -4.2890   -0.0370 P   0  0  0  0  0  0  0  0  0  0  0  0
   -3.6750   -3.9710   -0.7540 O   0  0  0  0  0  0  0  0  0  0  0  0
   -1.3040   -5.5230   -0.8080 O   0  0  0  0  0  0  0  0  0  0  0  0
   -0.9950    0.7730   -0.5360 N   0  0  0  0  0  0  0  0  0  0  0  0
   -2.1970    1.4320   -0.2700 C   0  0  0  0  0  0  0  0  0  0  0  0
   -2.8970    1.3500    0.8260 N   0  0  0  0  0  0  0  0  0  0  0  0
   -4.0650    2.1480    0.7550 C   0  0  0  0  0  0  0  0  0  0  0  0
   -5.1040    2.4340    1.5730 N   0  0  0  0  0  0  0  0  0  0  0  0
   -6.0740    3.2690    1.1740 C   0  0  0  0  0  0  0  0  0  0  0  0
   -7.0350    3.5060    1.9790 O   0  0  0  0  0  0  0  0  0  0  0  0
   -6.1090    3.8580    0.0110 O   0  0  0  0  0  0  0  0  0  0  0  0
   -5.1230    3.6090   -0.8190 C   0  0  0  0  0  0  0  0  0  0  0  0
   -5.0930    4.1390   -1.9550 O   0  0  0  0  0  0  0  0  0  0  0  0
   -4.0730    2.7680   -0.5060 C   0  0  0  0  0  0  0  0  0  0  0  0
   -2.8770    2.3260   -1.2010 C   0  0  0  0  0  0  0  0  0  0  0  0
   -2.4860    2.6360   -2.3560 O   0  0  0  0  0  0  0  0  0  0  0  0
    3.8820   -1.2820    0.4360 C   0  0  0  0  0  0  0  0  0  0  0  0
    5.2310   -0.9880    0.6780 C   0  0  0  0  0  0  0  0  0  0  0  0
  1  2  2  0
  2  3  1  0
  2  4  1  0
  4  5  2  0
  4 31  1  0
  5  6  1  0
  6  7  2  0
  7  8  1  0
  7 30  1  0
  8  9  1  0
  9 10  2  0
  9 11  1  0
 11 12  1  6
 11 17  1  0
 12 13  1  0
 13 14  1  0
 14 15  1  0
 14 16  1  0
 17 18  1  0
 18 19  2  0
 18 28  1  0
 19 20  1  0
 20 21  1  0
 20 27  2  0
 21 22  1  0
 22 23  2  0
 22 24  1  0
 24 25  1  0
 25 26  2  0
 25 27  1  0
 27 28  1  0
 28 29  2  0
 30 31  2  0
M  END
