
     RDKit          3D

 23 24  0  0  0  0  0  0  0  0999 V2000
   -4.0300   -1.6880    2.3710 C   0  0  0  0  0  0  0  0  0  0  0  0
   -2.7890   -1.4210    1.6220 C   0  0  0  0  0  0  0  0  0  0  0  0
   -1.9190   -2.4380    1.5480 C   0  0  0  0  0  0  0  0  0  0  0  0
   -0.6290   -2.5140    0.8970 C   0  0  0  0  0  0  0  0  0  0  0  0
    0.3170   -3.5080    1.4750 C   0  0  0  0  0  0  0  0  0  0  0  0
   -0.2150   -1.8160   -0.1270 N   0  0  0  0  0  0  0  0  0  0  0  0
   -0.9140   -0.8170   -0.8510 N   0  0  0  0  0  0  0  0  0  0  0  0
   -0.5730   -0.6040   -2.2360 C   0  0  0  0  0  0  0  0  0  0  0  0
    0.5350    0.4380   -2.4040 C   0  0  0  0  0  0  0  0  0  0  0  0
    1.7370   -0.0750   -1.6740 C   0  0  0  0  0  0  0  0  0  0  0  0
    2.8860    0.7980   -1.7220 N   0  0  0  0  0  0  0  0  0  0  0  0
    3.6270    1.0600   -2.9020 C   0  0  0  0  0  0  0  0  0  0  0  0
    4.6730    1.8530   -2.9410 C   0  0  0  0  0  0  0  0  0  0  0  0
    5.1810    2.5500   -1.7640 C   0  0  0  0  0  0  0  0  0  0  0  0
    4.3820    2.2500   -0.5540 C   0  0  0  0  0  0  0  0  0  0  0  0
    3.3320    1.4470   -0.5380 C   0  0  0  0  0  0  0  0  0  0  0  0
   -1.9570    0.0460   -0.3520 C   0  0  0  0  0  0  0  0  0  0  0  0
   -2.3630    0.9950   -1.0390 O   0  0  0  0  0  0  0  0  0  0  0  0
   -2.6150   -0.1230    0.9890 C   0  0  0  0  0  0  0  0  0  0  0  0
   -2.9830    0.9450    1.6020 C   0  0  0  0  0  0  0  0  0  0  0  0
   -3.5650    1.1460    2.8820 C   0  0  0  0  0  0  0  0  0  0  0  0
   -3.8740    2.4060    3.2720 C   0  0  0  0  0  0  0  0  0  0  0  0
   -4.5900    2.7530    4.8210 Cl  0  0  0  0  0  0  0  0  0  0  0  0
  1  2  1  0
  2  3  2  0
  2 19  1  0
  3  4  1  0
  4  5  1  0
  4  6  2  0
  6  7  1  0
  7  8  1  0
  7 17  1  0
  8  9  1  0
  9 10  1  0
 10 11  1  0
 11 12  1  0
 11 16  1  0
 12 13  2  0
 13 14  1  0
 14 15  1  0
 15 16  2  0
 17 18  2  0
 17 19  1  0
 19 20  2  3
 20 21  1  0
 21 22  2  3
 22 23  1  0
M  END
