
     RDKit          3D

 23 25  0  0  0  0  0  0  0  0999 V2000
   -1.0630   -1.1140   -1.9170 C   0  0  0  0  0  0  0  0  0  0  0  0
   -0.7640    0.0340   -0.9840 C   0  0  1  0  0  0  0  0  0  0  0  0
   -1.5010   -0.0250    0.2400 N   0  0  0  0  0  0  0  0  0  0  0  0
   -2.9130    0.0620    0.0300 C   0  0  0  0  0  0  0  0  0  0  0  0
   -3.7140    0.0070    1.3050 C   0  0  0  0  0  0  0  0  0  0  0  0
   -5.1600    0.1100    0.9130 C   0  0  0  0  0  0  0  0  0  0  0  0
   -6.2350    0.0960    1.8100 C   0  0  0  0  0  0  0  0  0  0  0  0
   -7.3920    0.2120    1.0660 C   0  0  0  0  0  0  0  0  0  0  0  0
   -6.9860    0.2910   -0.2350 C   0  0  0  0  0  0  0  0  0  0  0  0
   -5.6790    0.2280   -0.2850 O   0  0  0  0  0  0  0  0  0  0  0  0
    0.6960    0.0590   -0.7720 C   0  0  0  0  0  0  0  0  0  0  0  0
    1.2790   -0.7990    0.1210 C   0  0  0  0  0  0  0  0  0  0  0  0
    2.6650   -0.7840    0.3350 C   0  0  0  0  0  0  0  0  0  0  0  0
    3.4230    0.1130   -0.3720 C   0  0  0  0  0  0  0  0  0  0  0  0
    4.8590    0.1690   -0.1750 C   0  0  0  0  0  0  0  0  0  0  0  0
    5.7230    0.1720   -1.2550 C   0  0  0  0  0  0  0  0  0  0  0  0
    7.0410    0.2160   -1.0390 N   0  0  0  0  0  0  0  0  0  0  0  0
    7.6110    0.2580    0.1700 C   0  0  0  0  0  0  0  0  0  0  0  0
    6.7860    0.2560    1.2670 C   0  0  0  0  0  0  0  0  0  0  0  0
    5.4100    0.2110    1.0870 C   0  0  0  0  0  0  0  0  0  0  0  0
    4.3350    0.2180    2.4800 Cl  0  0  0  0  0  0  0  0  0  0  0  0
    2.7970    0.9580   -1.2590 C   0  0  0  0  0  0  0  0  0  0  0  0
    1.4560    0.9240   -1.4480 N   0  0  0  0  0  0  0  0  0  0  0  0
  2  1  1  6
  2  3  1  0
  2 11  1  0
  3  4  1  0
  4  5  1  0
  5  6  1  0
  6  7  2  0
  6 10  1  0
  7  8  1  0
  8  9  2  0
  9 10  1  0
 11 12  2  0
 11 23  1  0
 12 13  1  0
 13 14  2  0
 14 15  1  0
 14 22  1  0
 15 16  2  0
 15 20  1  0
 16 17  1  0
 17 18  2  0
 18 19  1  0
 19 20  2  0
 20 21  1  0
 22 23  2  0
M  END
