
     RDKit          3D

 23 25  0  0  0  0  0  0  0  0999 V2000
   -2.4480   -3.1780    1.1110 C   0  0  0  0  0  0  0  0  0  0  0  0
   -1.9740   -1.7770    1.3110 C   0  0  0  0  0  0  0  0  0  0  0  0
   -1.7920   -0.9100    0.3560 C   0  0  0  0  0  0  0  0  0  0  0  0
   -2.0540   -1.2920   -1.0220 C   0  0  0  0  0  0  0  0  0  0  0  0
   -1.7770   -2.3880   -1.5430 N   0  0  0  0  0  0  0  0  0  0  0  0
   -2.6960   -0.2200   -1.8710 C   0  0  0  0  0  0  0  0  0  0  0  0
   -1.9170    1.0560   -1.5440 C   0  0  0  0  0  0  0  0  0  0  0  0
   -1.9200    1.4390   -0.1990 N   0  0  0  0  0  0  0  0  0  0  0  0
   -2.8830    2.3010    0.3300 C   0  0  0  0  0  0  0  0  0  0  0  0
   -2.8660    3.7300   -0.0840 C   0  0  0  0  0  0  0  0  0  0  0  0
   -3.0890    4.0450   -1.7880 Cl  0  0  0  0  0  0  0  0  0  0  0  0
   -1.3390    0.4700    0.6930 C   0  0  2  0  0  0  0  0  0  0  0  0
    0.1290    0.6270    0.6130 C   0  0  0  0  0  0  0  0  0  0  0  0
    0.7940    1.8250    0.6810 C   0  0  0  0  0  0  0  0  0  0  0  0
    2.1490    1.5470    0.5670 C   0  0  0  0  0  0  0  0  0  0  0  0
    2.2190    0.1640    0.4340 C   0  0  0  0  0  0  0  0  0  0  0  0
    3.4950   -0.5240    0.2840 C   0  0  0  0  0  0  0  0  0  0  0  0
    4.7110    0.1230    0.2780 C   0  0  0  0  0  0  0  0  0  0  0  0
    5.9100   -0.5560    0.1250 C   0  0  0  0  0  0  0  0  0  0  0  0
    5.8970   -1.9250   -0.0260 C   0  0  0  0  0  0  0  0  0  0  0  0
    4.6710   -2.5540   -0.0170 C   0  0  0  0  0  0  0  0  0  0  0  0
    3.5210   -1.8590    0.1350 N   0  0  0  0  0  0  0  0  0  0  0  0
    1.0100   -0.3130    0.4680 O   0  0  0  0  0  0  0  0  0  0  0  0
  1  2  1  0
  2  3  2  3
  3  4  1  0
  3 12  1  0
  4  5  2  0
  4  6  1  0
  6  7  1  0
  7  8  1  0
  8  9  1  0
  8 12  1  0
  9 10  1  0
 10 11  1  0
 12 13  1  6
 13 14  2  0
 13 23  1  0
 14 15  1  0
 15 16  2  0
 16 17  1  0
 16 23  1  0
 17 18  2  0
 17 22  1  0
 18 19  1  0
 19 20  2  0
 20 21  1  0
 21 22  2  0
M  END
