
     RDKit          3D

 23 24  0  0  0  0  0  0  0  0999 V2000
   -2.7240   -2.6120    2.6000 C   0  0  0  0  0  0  0  0  0  0  0  0
   -3.1100   -1.6560    1.7760 C   0  0  0  0  0  0  0  0  0  0  0  0
   -2.1100   -0.8420    1.0930 C   0  0  0  0  0  0  0  0  0  0  0  0
   -2.4260    0.1300    0.2520 C   0  0  0  0  0  0  0  0  0  0  0  0
   -1.4120    0.8800   -0.3740 N   0  0  0  0  0  0  0  0  0  0  0  0
   -0.3910    0.3120   -1.2280 C   0  0  1  0  0  0  0  0  0  0  0  0
   -0.9930   -0.5220   -2.3410 C   0  0  0  0  0  0  0  0  0  0  0  0
    0.4790    1.3670   -1.8650 C   0  0  0  0  0  0  0  0  0  0  0  0
    1.1780    2.1790   -0.8180 C   0  0  0  0  0  0  0  0  0  0  0  0
    2.0090    1.2960   -0.0270 N   0  0  0  0  0  0  0  0  0  0  0  0
    3.3800    0.9900   -0.4350 C   0  0  0  0  0  0  0  0  0  0  0  0
    3.9470    0.3380    0.7860 C   0  0  2  0  0  0  0  0  0  0  0  0
    5.1220   -0.5480    0.5230 C   0  0  0  0  0  0  0  0  0  0  0  0
    4.8180   -1.6870   -0.4080 C   0  0  0  0  0  0  0  0  0  0  0  0
    2.7530   -0.4290    1.3330 C   0  0  0  0  0  0  0  0  0  0  0  0
    1.7020    0.6050    1.1700 C   0  0  0  0  0  0  0  0  0  0  0  0
    0.7410    0.8370    1.9170 O   0  0  0  0  0  0  0  0  0  0  0  0
   -3.8420    0.3720    0.0200 C   0  0  0  0  0  0  0  0  0  0  0  0
   -4.2910    1.4200   -0.9140 C   0  0  0  0  0  0  0  0  0  0  0  0
   -5.5820    1.6170   -1.0960 C   0  0  0  0  0  0  0  0  0  0  0  0
   -3.1930    2.4270   -1.8170 Cl  0  0  0  0  0  0  0  0  0  0  0  0
   -4.7600   -0.3280    0.6090 N   0  0  0  0  0  0  0  0  0  0  0  0
   -4.5580   -1.3880    1.5260 C   0  0  0  0  0  0  0  0  0  0  0  0
  1  2  2  0
  2  3  1  0
  2 23  1  0
  3  4  2  0
  4  5  1  0
  4 18  1  0
  5  6  1  0
  6  7  1  6
  6  8  1  0
  8  9  1  0
  9 10  1  0
 10 11  1  0
 10 16  1  0
 11 12  1  0
 12 13  1  6
 12 15  1  0
 13 14  1  0
 15 16  1  0
 16 17  2  0
 18 19  1  0
 18 22  2  0
 19 20  2  0
 19 21  1  0
 22 23  1  0
M  END
