
     RDKit          3D

 23 25  0  0  0  0  0  0  0  0999 V2000
   -4.3760   -1.4640    1.2400 C   0  0  0  0  0  0  0  0  0  0  0  0
   -4.5570   -0.0700    0.7550 C   0  0  0  0  0  0  0  0  0  0  0  0
   -3.8710    0.5030   -0.1960 C   0  0  0  0  0  0  0  0  0  0  0  0
   -2.8150   -0.0950   -0.9560 N   0  0  0  0  0  0  0  0  0  0  0  0
   -1.5110   -0.2780   -0.3700 C   0  0  2  0  0  0  0  0  0  0  0  0
   -0.9960    1.0930    0.0170 C   0  0  0  0  0  0  0  0  0  0  0  0
   -0.5970   -0.9600   -1.3340 C   0  0  0  0  0  0  0  0  0  0  0  0
    0.7200   -1.1770   -0.8220 N   0  0  0  0  0  0  0  0  0  0  0  0
    1.8270   -0.2430   -0.9510 C   0  0  0  0  0  0  0  0  0  0  0  0
    2.5930   -0.5100    0.3290 C   0  0  2  0  0  0  0  0  0  0  0  0
    3.9770    0.0290    0.2700 C   0  0  0  0  0  0  0  0  0  0  0  0
    4.4300    0.8550    1.2540 C   0  0  0  0  0  0  0  0  0  0  0  0
    5.7240    1.3710    1.2160 C   0  0  0  0  0  0  0  0  0  0  0  0
    6.5600    1.0440    0.1730 C   0  0  0  0  0  0  0  0  0  0  0  0
    6.0610    0.2010   -0.8080 C   0  0  0  0  0  0  0  0  0  0  0  0
    4.8080   -0.2770   -0.7380 N   0  0  0  0  0  0  0  0  0  0  0  0
    2.6060   -2.0390    0.3320 C   0  0  0  0  0  0  0  0  0  0  0  0
    1.2060   -2.3260   -0.0980 C   0  0  0  0  0  0  0  0  0  0  0  0
    0.5390   -3.3640    0.1130 O   0  0  0  0  0  0  0  0  0  0  0  0
   -4.3170    1.8580   -0.4000 C   0  0  0  0  0  0  0  0  0  0  0  0
   -3.6810    3.0020   -1.5740 Cl  0  0  0  0  0  0  0  0  0  0  0  0
   -5.2890    2.1140    0.4390 C   0  0  0  0  0  0  0  0  0  0  0  0
   -5.5360    0.9170    1.2530 C   0  0  0  0  0  0  0  0  0  0  0  0
  1  2  1  0
  2  3  2  0
  2 23  1  0
  3  4  1  0
  3 20  1  0
  4  5  1  0
  5  6  1  6
  5  7  1  0
  7  8  1  0
  8  9  1  0
  8 18  1  0
  9 10  1  0
 10 11  1  6
 10 17  1  0
 11 12  2  0
 11 16  1  0
 12 13  1  0
 13 14  2  0
 14 15  1  0
 15 16  2  0
 17 18  1  0
 18 19  2  0
 20 21  1  0
 20 22  2  0
 22 23  1  0
M  END
