
     RDKit          3D

 18 18  0  0  0  0  0  0  0  0999 V2000
    5.1130   -1.0810    0.4370 C   0  0  0  0  0  0  0  0  0  0  0  0
    4.4690   -0.1530   -0.2400 C   0  0  0  0  0  0  0  0  0  0  0  0
    3.0400    0.0810   -0.1080 C   0  0  0  0  0  0  0  0  0  0  0  0
    2.4310    1.0240   -0.8060 C   0  0  0  0  0  0  0  0  0  0  0  0
    3.1580    1.8930   -1.7580 C   0  0  0  0  0  0  0  0  0  0  0  0
    2.2840   -0.7630    0.8270 C   0  0  0  0  0  0  0  0  0  0  0  0
    0.8340   -0.4370    0.8730 C   0  0  0  0  0  0  0  0  0  0  0  0
   -0.0640   -1.2690    0.2390 C   0  0  0  0  0  0  0  0  0  0  0  0
   -1.4290   -1.0240    0.2460 C   0  0  0  0  0  0  0  0  0  0  0  0
   -2.3400   -1.8550   -0.3900 O   0  0  0  0  0  0  0  0  0  0  0  0
   -1.8700   -3.0050   -1.0780 C   0  0  0  0  0  0  0  0  0  0  0  0
   -1.8600    0.0990    0.9210 C   0  0  0  0  0  0  0  0  0  0  0  0
   -3.3070    0.4000    0.9550 C   0  0  0  0  0  0  0  0  0  0  0  0
   -3.7230    0.9660   -0.3850 C   0  0  0  0  0  0  0  0  0  0  0  0
   -5.2040    1.2950   -0.4070 C   0  0  0  0  0  0  0  0  0  0  0  0
   -0.9530    0.9360    1.5600 C   0  0  0  0  0  0  0  0  0  0  0  0
    0.4100    0.6870    1.5500 C   0  0  0  0  0  0  0  0  0  0  0  0
    1.2820    1.5480    2.2000 O   0  0  0  0  0  0  0  0  0  0  0  0
  1  2  2  0
  2  3  1  0
  3  4  2  3
  3  6  1  0
  4  5  1  0
  6  7  1  0
  7  8  2  0
  7 17  1  0
  8  9  1  0
  9 10  1  0
  9 12  2  0
 10 11  1  0
 12 13  1  0
 12 16  1  0
 13 14  1  0
 14 15  1  0
 16 17  2  0
 17 18  1  0
M  END
