
     RDKit          3D

 22 22  0  0  0  0  0  0  0  0999 V2000
    2.3500    1.9140    1.0740 C   0  0  0  0  0  0  0  0  0  0  0  0
    3.3320    1.1210    0.6920 C   0  0  0  0  0  0  0  0  0  0  0  0
    4.6190    1.5820    1.0310 O   0  0  0  0  0  0  0  0  0  0  0  0
    3.1880   -0.1370   -0.0220 C   0  0  0  0  0  0  0  0  0  0  0  0
    4.2090   -0.8440   -0.3540 C   0  0  0  0  0  0  0  0  0  0  0  0
    5.6490   -0.6780   -0.1740 C   0  0  0  0  0  0  0  0  0  0  0  0
    6.3940   -0.6440   -1.8270 Cl  0  0  0  0  0  0  0  0  0  0  0  0
    1.8490   -0.5170   -0.3170 N   0  0  0  0  0  0  0  0  0  0  0  0
    1.3910   -1.6570   -0.9850 C   0  0  0  0  0  0  0  0  0  0  0  0
    2.1650   -2.5160   -1.4190 O   0  0  0  0  0  0  0  0  0  0  0  0
   -0.0920   -1.8850   -1.2040 C   0  0  0  0  0  0  0  0  0  0  0  0
   -0.8420   -0.8380   -0.6630 O   0  0  0  0  0  0  0  0  0  0  0  0
   -2.2350   -0.8950   -0.7800 C   0  0  0  0  0  0  0  0  0  0  0  0
   -2.7460   -1.8800   -1.3640 O   0  0  0  0  0  0  0  0  0  0  0  0
   -3.0990    0.1420   -0.2520 C   0  0  0  0  0  0  0  0  0  0  0  0
   -2.7340    1.2540    0.3940 C   0  0  0  0  0  0  0  0  0  0  0  0
   -1.4250    1.6370    0.6900 O   0  0  0  0  0  0  0  0  0  0  0  0
   -3.9360    1.9920    0.7340 C   0  0  0  0  0  0  0  0  0  0  0  0
   -4.0000    3.0750    1.3380 O   0  0  0  0  0  0  0  0  0  0  0  0
   -5.0560    1.2280    0.2370 C   0  0  0  0  0  0  0  0  0  0  0  0
   -4.5490    0.1450   -0.3390 C   0  0  0  0  0  0  0  0  0  0  0  0
   -5.4260   -0.8970   -0.9770 C   0  0  0  0  0  0  0  0  0  0  0  0
  1  2  2  0
  2  3  1  0
  2  4  1  0
  4  5  2  3
  4  8  1  0
  5  6  1  0
  6  7  1  0
  8  9  1  0
  9 10  2  0
  9 11  1  0
 11 12  1  0
 12 13  1  0
 13 14  2  0
 13 15  1  0
 15 16  2  0
 15 21  1  0
 16 17  1  0
 16 18  1  0
 18 19  2  0
 18 20  1  0
 20 21  2  0
 21 22  1  0
M  END
