
     RDKit          3D

 22 22  0  0  0  0  0  0  0  0999 V2000
    7.6090   -0.2190    0.8820 C   0  0  0  0  0  0  0  0  0  0  0  0
    6.4370    0.5360    0.7830 O   0  0  0  0  0  0  0  0  0  0  0  0
    5.4180    0.3250   -0.0940 C   0  0  0  0  0  0  0  0  0  0  0  0
    5.5770   -0.6710   -0.8990 O   0  0  0  0  0  0  0  0  0  0  0  0
    4.1810    1.1330   -0.1890 C   0  0  0  0  0  0  0  0  0  0  0  0
    2.9830    0.2090   -0.0750 C   0  0  0  0  0  0  0  0  0  0  0  0
    1.7050    0.9780   -0.1560 C   0  0  0  0  0  0  0  0  0  0  0  0
    1.7310    2.2130   -0.3500 O   0  0  0  0  0  0  0  0  0  0  0  0
    0.4780    0.3630   -0.0200 O   0  0  0  0  0  0  0  0  0  0  0  0
   -0.7700    1.0120   -0.0810 C   0  0  0  0  0  0  0  0  0  0  0  0
   -1.8410   -0.0330    0.1320 C   0  0  2  0  0  0  0  0  0  0  0  0
   -1.7040   -0.7170    1.4640 C   0  0  0  0  0  0  0  0  0  0  0  0
   -1.8010    0.1710    2.5880 N   0  0  0  0  0  0  0  0  0  0  0  0
   -1.7400   -1.1400   -0.9010 C   0  0  0  0  0  0  0  0  0  0  0  0
   -3.1350   -1.6600   -0.8410 C   0  0  0  0  0  0  0  0  0  0  0  0
   -3.4730   -2.8490   -1.3260 C   0  0  0  0  0  0  0  0  0  0  0  0
   -4.8120   -3.2200   -1.2090 O   0  0  0  0  0  0  0  0  0  0  0  0
   -2.3440   -3.9170   -2.0750 Cl  0  0  0  0  0  0  0  0  0  0  0  0
   -3.9590   -0.7290   -0.2260 O   0  0  0  0  0  0  0  0  0  0  0  0
   -3.2160    0.4640   -0.1400 C   0  0  1  0  0  0  0  0  0  0  0  0
   -3.7470    1.4240    0.8740 C   0  0  0  0  0  0  0  0  0  0  0  0
   -3.3180    1.1420   -1.4950 C   0  0  0  0  0  0  0  0  0  0  0  0
  1  2  1  0
  2  3  1  0
  3  4  2  0
  3  5  1  0
  5  6  1  0
  6  7  1  0
  7  8  2  0
  7  9  1  0
  9 10  1  0
 11 10  1  6
 11 12  1  0
 11 14  1  0
 11 20  1  0
 12 13  1  0
 14 15  1  0
 15 16  2  3
 15 19  1  0
 16 17  1  0
 16 18  1  0
 19 20  1  0
 20 21  1  1
 20 22  1  0
M  END
