
     RDKit          3D

 22 22  0  0  0  0  0  0  0  0999 V2000
   -2.1090    2.3610    0.5720 C   0  0  0  0  0  0  0  0  0  0  0  0
   -1.1130    1.2680    0.6230 C   0  0  0  0  0  0  0  0  0  0  0  0
   -1.1810    0.3250   -0.3040 C   0  0  0  0  0  0  0  0  0  0  0  0
   -2.1130    0.3150   -1.2910 O   0  0  0  0  0  0  0  0  0  0  0  0
   -3.4750    0.4210   -1.1410 C   0  0  0  0  0  0  0  0  0  0  0  0
   -4.3450    1.2640   -1.6670 C   0  0  0  0  0  0  0  0  0  0  0  0
   -5.7170    0.9720   -1.1940 C   0  0  0  0  0  0  0  0  0  0  0  0
   -5.5260   -0.1790   -0.3050 C   0  0  0  0  0  0  0  0  0  0  0  0
   -4.2480   -0.4740   -0.2890 C   0  0  0  0  0  0  0  0  0  0  0  0
   -3.6050   -1.8170    0.6770 Cl  0  0  0  0  0  0  0  0  0  0  0  0
   -0.2030   -0.7460   -0.2510 C   0  0  0  0  0  0  0  0  0  0  0  0
   -0.2590   -1.6450   -1.1270 O   0  0  0  0  0  0  0  0  0  0  0  0
    0.7790   -0.8000    0.7300 O   0  0  0  0  0  0  0  0  0  0  0  0
    1.6950   -1.8650    0.7220 C   0  0  2  0  0  0  0  0  0  0  0  0
    1.5220   -2.5960    2.0390 C   0  0  0  0  0  0  0  0  0  0  0  0
    3.0550   -1.3320    0.5560 C   0  0  0  0  0  0  0  0  0  0  0  0
    4.0880   -2.0490    0.5120 O   0  0  0  0  0  0  0  0  0  0  0  0
    3.2350    0.0340    0.4390 O   0  0  0  0  0  0  0  0  0  0  0  0
    4.4900    0.6220    0.2790 C   0  0  0  0  0  0  0  0  0  0  0  0
    5.1720    0.1340   -0.9690 C   0  0  0  0  0  0  0  0  0  0  0  0
    6.4620    0.6000   -1.3310 N   0  0  0  0  0  0  0  0  0  0  0  0
    4.6220   -0.7020   -1.7310 O   0  0  0  0  0  0  0  0  0  0  0  0
  1  2  1  0
  2  3  2  3
  3  4  1  0
  3 11  1  0
  4  5  1  0
  5  6  2  0
  5  9  1  0
  6  7  1  0
  7  8  1  0
  8  9  2  0
  9 10  1  0
 11 12  2  0
 11 13  1  0
 13 14  1  0
 14 15  1  1
 14 16  1  0
 16 17  2  0
 16 18  1  0
 18 19  1  0
 19 20  1  0
 20 21  1  0
 20 22  2  0
M  END
