
     RDKit          3D

 16 15  0  0  0  0  0  0  0  0999 V2000
    4.4790    1.0850    0.3450 N   0  0  0  0  0  0  0  0  0  0  0  0
    3.2480    0.8530   -0.0060 C   0  0  0  0  0  0  0  0  0  0  0  0
    2.7660   -0.6750   -0.7850 S   0  0  0  0  0  0  0  0  0  0  0  0
    4.0720   -1.7310   -0.9950 O   0  0  0  0  0  0  0  0  0  0  0  0
    2.2310    1.8610    0.2400 C   0  0  0  0  0  0  0  0  0  0  0  0
    2.5040    2.9690    0.7900 O   0  0  0  0  0  0  0  0  0  0  0  0
    0.8940    1.5870   -0.1500 N   0  0  0  0  0  0  0  0  0  0  0  0
    0.2720    0.5290    0.2480 C   0  0  0  0  0  0  0  0  0  0  0  0
   -1.0800    0.2230   -0.1290 C   0  0  0  0  0  0  0  0  0  0  0  0
   -1.6860   -0.8710    0.2980 C   0  0  0  0  0  0  0  0  0  0  0  0
   -0.9870   -1.7610    1.1460 N   0  0  0  0  0  0  0  0  0  0  0  0
   -1.4480   -2.8180    1.5740 O   0  0  0  0  0  0  0  0  0  0  0  0
   -3.0040   -1.1380   -0.0890 O   0  0  0  0  0  0  0  0  0  0  0  0
   -3.7630   -0.1170   -0.5800 O   0  0  0  0  0  0  0  0  0  0  0  0
   -5.1520   -0.1020   -0.4610 C   0  0  0  0  0  0  0  0  0  0  0  0
   -5.6640   -1.0990    0.1320 O   0  0  0  0  0  0  0  0  0  0  0  0
  1  2  2  0
  2  3  1  0
  2  5  1  0
  3  4  1  0
  5  6  2  0
  5  7  1  0
  7  8  2  3
  8  9  1  0
  9 10  2  3
 10 11  1  0
 10 13  1  0
 11 12  2  0
 13 14  1  0
 14 15  1  0
 15 16  2  0
M  END
