
     RDKit          3D

 27 28  0  0  0  0  0  0  0  0999 V2000
    2.2670   -4.3530    0.5430 N   0  0  0  0  0  0  0  0  0  0  0  0
    2.1230   -3.0790    0.6250 C   0  0  0  0  0  0  0  0  0  0  0  0
    1.0700   -2.3460   -0.0070 N   0  0  0  0  0  0  0  0  0  0  0  0
    0.9170   -1.0790    0.0600 C   0  0  0  0  0  0  0  0  0  0  0  0
   -0.1940   -0.4610   -0.6240 N   0  0  0  0  0  0  0  0  0  0  0  0
   -0.6540    0.8050   -0.0430 C   0  0  2  0  0  0  0  0  0  0  0  0
   -1.4940    1.5770   -1.0310 C   0  0  0  0  0  0  0  0  0  0  0  0
   -2.6380    0.8990   -1.4540 O   0  0  0  0  0  0  0  0  0  0  0  0
   -3.6490    0.4800   -0.6030 C   0  0  0  0  0  0  0  0  0  0  0  0
   -3.5080    0.7360    0.6210 O   0  0  0  0  0  0  0  0  0  0  0  0
   -4.7770   -0.1970   -1.0680 O   0  0  0  0  0  0  0  0  0  0  0  0
   -5.9710   -0.6630    0.1330 P   0  0  0  0  0  0  0  0  0  0  0  0
   -6.2520    0.7100    1.1570 O   0  0  0  0  0  0  0  0  0  0  0  0
   -7.8680   -1.2630   -0.7630 P   0  0  0  0  0  0  0  0  0  0  0  0
   -8.9380    0.0940   -0.7670 O   0  0  0  0  0  0  0  0  0  0  0  0
   -8.6230   -2.5600    0.0750 O   0  0  0  0  0  0  0  0  0  0  0  0
    0.5950    1.6060    0.2570 C   0  0  0  0  0  0  0  0  0  0  0  0
    1.3090    0.9580    1.2330 O   0  0  0  0  0  0  0  0  0  0  0  0
    1.8690   -0.2420    0.7980 C   0  0  2  0  0  0  0  0  0  0  0  0
    2.9530    0.0130   -0.1100 O   0  0  0  0  0  0  0  0  0  0  0  0
    4.0350    0.7860    0.2500 C   0  0  0  0  0  0  0  0  0  0  0  0
    4.1180    1.3020    1.3860 O   0  0  0  0  0  0  0  0  0  0  0  0
    5.0980    0.9710   -0.7910 C   0  0  0  0  0  0  0  0  0  0  0  0
    6.1290    1.8070   -0.2060 N   0  0  0  0  0  0  0  0  0  0  0  0
    7.1370    2.0360   -1.0640 O   0  0  0  0  0  0  0  0  0  0  0  0
    2.4500   -1.0240    1.9470 C   0  0  0  0  0  0  0  0  0  0  0  0
    3.0360   -2.2470    1.3780 N   0  0  0  0  0  0  0  0  0  0  0  0
  1  2  2  0
  2  3  1  0
  2 27  1  0
  3  4  2  0
  4  5  1  0
  4 19  1  0
  5  6  1  0
  6  7  1  6
  6 17  1  0
  7  8  1  0
  8  9  1  0
  9 10  2  0
  9 11  1  0
 11 12  1  0
 12 13  1  0
 12 14  1  0
 14 15  1  0
 14 16  1  0
 17 18  1  0
 18 19  1  0
 19 20  1  6
 19 26  1  0
 20 21  1  0
 21 22  2  0
 21 23  1  0
 23 24  1  0
 24 25  1  0
 26 27  1  0
M  END
