
     RDKit          3D

 15 16  0  0  0  0  0  0  0  0999 V2000
   -2.6030   -0.6040    0.1410 C   0  0  0  0  0  0  0  0  0  0  0  0
   -1.2950    0.2530   -0.0510 S   0  0  0  0  0  0  0  0  0  0  0  0
   -0.9980   -0.0260    1.6080 O   0  0  0  0  0  0  0  0  0  0  0  0
   -0.6660   -0.9250   -1.0730 N   0  0  0  0  0  0  0  0  0  0  0  0
    0.1690   -1.8000   -0.2730 C   0  0  0  0  0  0  0  0  0  0  0  0
    1.4830   -1.0910   -0.1830 C   0  0  0  0  0  0  0  0  0  0  0  0
    2.6750   -1.7910   -0.2480 O   0  0  0  0  0  0  0  0  0  0  0  0
    3.8440   -1.0890   -0.0020 N   0  0  0  0  0  0  0  0  0  0  0  0
    1.4270    0.2250   -0.0390 C   0  0  0  0  0  0  0  0  0  0  0  0
    0.1260    0.9550    0.0290 C   0  0  0  0  0  0  0  0  0  0  0  0
    0.3560    2.2300    0.1540 N   0  0  0  0  0  0  0  0  0  0  0  0
   -0.6810    3.2010    0.2340 C   0  0  0  0  0  0  0  0  0  0  0  0
   -0.5250    4.4290    0.3560 O   0  0  0  0  0  0  0  0  0  0  0  0
   -1.9510    2.5960    0.1570 O   0  0  0  0  0  0  0  0  0  0  0  0
   -2.0230    1.4930   -0.5820 O   0  0  0  0  0  0  0  0  0  0  0  0
  1  2  1  0
  2  3  2  0
  2  4  1  0
  2 10  1  0
  2 15  1  0
  4  5  1  0
  5  6  1  0
  6  7  1  0
  6  9  2  0
  7  8  1  0
  9 10  1  0
 10 11  2  0
 11 12  1  0
 12 13  2  0
 12 14  1  0
 14 15  1  0
M  END
