
     RDKit          3D

 13 12  0  0  0  0  0  0  0  0999 V2000
   -3.5020    0.5710   -1.0050 C   0  0  0  0  0  0  0  0  0  0  0  0
   -2.7900    0.7610    0.1780 O   0  0  0  0  0  0  0  0  0  0  0  0
   -1.7470    0.0030    0.6290 C   0  0  0  0  0  0  0  0  0  0  0  0
   -1.9690   -1.1440    1.2270 C   0  0  0  0  0  0  0  0  0  0  0  0
   -0.9870   -1.9890    1.7220 O   0  0  0  0  0  0  0  0  0  0  0  0
   -0.4000    0.4660    0.4470 C   0  0  0  0  0  0  0  0  0  0  0  0
   -0.1580    1.6060   -0.1430 C   0  0  0  0  0  0  0  0  0  0  0  0
    1.1950    2.1720   -0.3790 C   0  0  0  0  0  0  0  0  0  0  0  0
    1.4560    2.3650   -1.7740 N   0  0  0  0  0  0  0  0  0  0  0  0
    0.6580   -0.2870    0.8920 O   0  0  0  0  0  0  0  0  0  0  0  0
    1.3700   -1.2070    0.1160 C   0  0  0  0  0  0  0  0  0  0  0  0
    2.4830   -1.8590    0.9490 C   0  0  0  0  0  0  0  0  0  0  0  0
    3.1980   -2.7700    0.2030 O   0  0  0  0  0  0  0  0  0  0  0  0
  1  2  1  0
  2  3  1  0
  3  4  2  3
  3  6  1  0
  4  5  1  0
  6  7  2  3
  6 10  1  0
  7  8  1  0
  8  9  1  0
 10 11  1  0
 11 12  1  0
 12 13  1  0
M  END
