
     RDKit          3D

 23 23  0  0  0  0  0  0  0  0999 V2000
   -2.6770    2.3630   -1.9500 O   0  0  0  0  0  0  0  0  0  0  0  0
   -2.7510    1.1740   -1.4740 C   0  0  0  0  0  0  0  0  0  0  0  0
   -3.1640    0.2180   -2.3620 O   0  0  0  0  0  0  0  0  0  0  0  0
   -2.4090    0.9020   -0.0790 C   0  0  2  0  0  0  0  0  0  0  0  0
   -2.1700    2.2360    0.6070 C   0  0  0  0  0  0  0  0  0  0  0  0
   -1.8390    2.0860    1.9310 O   0  0  0  0  0  0  0  0  0  0  0  0
   -1.2870   -0.0450    0.0760 C   0  0  1  0  0  0  0  0  0  0  0  0
   -1.5980   -1.3950   -0.4950 C   0  0  0  0  0  0  0  0  0  0  0  0
   -2.7510   -2.0870    0.1360 C   0  0  1  0  0  0  0  0  0  0  0  0
   -2.5590   -2.2940    1.5060 O   0  0  0  0  0  0  0  0  0  0  0  0
   -3.9960   -1.5790   -0.0690 O   0  0  0  0  0  0  0  0  0  0  0  0
   -0.0660    0.5630   -0.6000 C   0  0  0  0  0  0  0  0  0  0  0  0
    1.0750    0.1180    0.2770 C   0  0  2  0  0  0  0  0  0  0  0  0
    1.6550    1.3470    0.9160 C   0  0  0  0  0  0  0  0  0  0  0  0
    2.1170    2.2730   -0.0060 O   0  0  0  0  0  0  0  0  0  0  0  0
    1.9550   -0.5820   -0.5070 O   0  0  0  0  0  0  0  0  0  0  0  0
    3.0620   -1.0750    0.1100 C   0  0  1  0  0  0  0  0  0  0  0  0
    2.9650   -2.4900    0.0360 O   0  0  0  0  0  0  0  0  0  0  0  0
    4.3470   -0.7480   -0.6490 C   0  0  1  0  0  0  0  0  0  0  0  0
    4.3110   -1.2870   -1.9320 O   0  0  0  0  0  0  0  0  0  0  0  0
    4.6400    0.6060   -0.6490 O   0  0  0  0  0  0  0  0  0  0  0  0
    0.4090   -0.6950    1.3360 C   0  0  0  0  0  0  0  0  0  0  0  0
   -0.8770   -0.2060    1.3960 O   0  0  0  0  0  0  0  0  0  0  0  0
  1  2  2  0
  2  3  1  0
  2  4  1  0
  4  5  1  6
  4  7  1  0
  5  6  1  0
  7  8  1  6
  7 12  1  0
  7 23  1  0
  8  9  1  0
  9 10  1  1
  9 11  1  0
 12 13  1  0
 13 14  1  1
 13 16  1  0
 13 22  1  0
 14 15  1  0
 16 17  1  0
 17 18  1  6
 17 19  1  0
 19 20  1  6
 19 21  1  0
 22 23  1  0
M  END
