
     RDKit          3D

 22 22  0  0  0  0  0  0  0  0999 V2000
   -4.4730   -0.8390    2.4390 O   0  0  0  0  0  0  0  0  0  0  0  0
   -3.5920   -1.4900    1.5730 C   0  0  0  0  0  0  0  0  0  0  0  0
   -3.0260   -0.4990    0.5850 C   0  0  1  0  0  0  0  0  0  0  0  0
   -2.1620   -1.1410   -0.2660 O   0  0  0  0  0  0  0  0  0  0  0  0
   -0.8680   -0.6780   -0.2300 C   0  0  0  0  0  0  0  0  0  0  0  0
   -0.1810   -0.7880    1.0910 C   0  0  1  0  0  0  0  0  0  0  0  0
   -0.0650   -2.0800    1.5700 O   0  0  0  0  0  0  0  0  0  0  0  0
    1.2180   -0.1850    0.9100 C   0  0  0  0  0  0  0  0  0  0  0  0
    1.9000   -0.9750    0.0060 O   0  0  0  0  0  0  0  0  0  0  0  0
    3.1750   -0.4610   -0.1850 C   0  0  1  0  0  0  0  0  0  0  0  0
    4.2200   -1.4480    0.1720 C   0  0  0  0  0  0  0  0  0  0  0  0
    5.3060   -1.5550   -0.5920 O   0  0  0  0  0  0  0  0  0  0  0  0
    5.6150   -0.6570   -1.5270 C   0  0  0  0  0  0  0  0  0  0  0  0
    4.7740    0.5670   -1.6390 C   0  0  1  0  0  0  0  0  0  0  0  0
    5.0460    1.2550   -2.8040 O   0  0  0  0  0  0  0  0  0  0  0  0
    3.3260    0.0520   -1.6250 C   0  0  2  0  0  0  0  0  0  0  0  0
    2.4180    1.0440   -1.8780 O   0  0  0  0  0  0  0  0  0  0  0  0
   -4.0430    0.1760   -0.0990 O   0  0  0  0  0  0  0  0  0  0  0  0
   -4.0760    1.5260    0.1540 C   0  0  1  0  0  0  0  0  0  0  0  0
   -3.9100    2.1860   -1.0800 O   0  0  0  0  0  0  0  0  0  0  0  0
   -5.4300    1.9530    0.6790 C   0  0  0  0  0  0  0  0  0  0  0  0
   -6.4030    1.6480   -0.2790 O   0  0  0  0  0  0  0  0  0  0  0  0
  1  2  1  0
  3  2  1  1
  3  4  1  0
  3 18  1  0
  4  5  1  0
  5  6  1  0
  6  7  1  6
  6  8  1  0
  8  9  1  0
 10  9  1  6
 10 11  1  0
 10 16  1  0
 11 12  1  0
 12 13  1  0
 13 14  1  0
 14 15  1  6
 14 16  1  0
 16 17  1  1
 18 19  1  0
 19 20  1  6
 19 21  1  0
 21 22  1  0
M  END
