
     RDKit          3D

 25 29  0  0  0  0  0  0  0  0999 V2000
   -0.2440   -0.7100   -1.7510 O   0  0  0  0  0  0  0  0  0  0  0  0
   -0.4780   -1.3030   -0.6780 C   0  0  0  0  0  0  0  0  0  0  0  0
    0.6300   -2.0400   -0.0150 C   0  0  0  0  0  0  0  0  0  0  0  0
    1.8930   -1.9400   -0.7800 C   0  0  0  0  0  0  0  0  0  0  0  0
    2.3720   -2.7630   -1.7700 C   0  0  0  0  0  0  0  0  0  0  0  0
    3.5550   -2.2640   -2.1590 N   0  0  0  0  0  0  0  0  0  0  0  0
    3.8500   -1.1580   -1.4580 C   0  0  0  0  0  0  0  0  0  0  0  0
    4.9190   -0.2700   -1.4540 C   0  0  0  0  0  0  0  0  0  0  0  0
    4.9180    0.7980   -0.5840 C   0  0  0  0  0  0  0  0  0  0  0  0
    3.8680    0.9920    0.2780 C   0  0  0  0  0  0  0  0  0  0  0  0
    2.8260    0.0930    0.2470 C   0  0  0  0  0  0  0  0  0  0  0  0
    2.8220   -0.9670   -0.6130 N   0  0  0  0  0  0  0  0  0  0  0  0
    4.1160    2.2180    1.1120 C   0  0  0  0  0  0  0  0  0  0  0  0
    5.6510    2.2310    1.0950 C   0  0  0  0  0  0  0  0  0  0  0  0
    5.8980    1.8890   -0.3580 C   0  0  0  0  0  0  0  0  0  0  0  0
   -1.7570   -1.2830   -0.0980 N   0  0  0  0  0  0  0  0  0  0  0  0
   -2.1030   -1.9420    1.1350 C   0  0  0  0  0  0  0  0  0  0  0  0
   -3.6000   -2.1960    1.1230 C   0  0  0  0  0  0  0  0  0  0  0  0
   -4.3000   -0.8520    1.2050 C   0  0  0  0  0  0  0  0  0  0  0  0
   -3.7010    0.1460    0.2570 C   0  0  2  0  0  0  0  0  0  0  0  0
   -2.9920    1.2790    0.9430 C   0  0  0  0  0  0  0  0  0  0  0  0
   -3.7670    2.5310    0.5770 C   0  0  0  0  0  0  0  0  0  0  0  0
   -5.1130    2.0010    0.3780 N   0  0  0  0  0  0  0  0  0  0  0  0
   -4.8140    0.8490   -0.4850 C   0  0  0  0  0  0  0  0  0  0  0  0
   -2.8350   -0.5500   -0.7700 C   0  0  0  0  0  0  0  0  0  0  0  0
  1  2  2  0
  2  3  1  0
  2 16  1  0
  3  4  1  0
  4  5  2  0
  4 12  1  0
  5  6  1  0
  6  7  2  0
  7  8  1  0
  7 12  1  0
  8  9  2  0
  9 10  1  0
  9 15  1  0
 10 11  2  0
 10 13  1  0
 11 12  1  0
 13 14  1  0
 14 15  1  0
 16 17  1  0
 16 25  1  0
 17 18  1  0
 18 19  1  0
 20 19  1  1
 20 21  1  0
 20 24  1  0
 20 25  1  0
 21 22  1  0
 22 23  1  0
 23 24  1  0
M  END
