
     RDKit          3D

 26 29  0  0  0  0  0  0  0  0999 V2000
   -1.7330    0.7100   -1.7770 O   0  0  0  0  0  0  0  0  0  0  0  0
   -2.1110    0.2410   -0.7000 C   0  0  0  0  0  0  0  0  0  0  0  0
   -1.2050   -0.2770    0.2470 N   0  0  0  0  0  0  0  0  0  0  0  0
    0.2000   -0.3230    0.0960 C   0  0  0  0  0  0  0  0  0  0  0  0
    0.9560   -1.0780    1.0080 C   0  0  0  0  0  0  0  0  0  0  0  0
    2.3220   -1.1370    0.9040 C   0  0  0  0  0  0  0  0  0  0  0  0
    3.0390   -0.4780   -0.0750 C   0  0  0  0  0  0  0  0  0  0  0  0
    4.4490   -0.5520   -0.1520 N   0  0  0  0  0  0  0  0  0  0  0  0
    5.3050   -1.1340    0.8620 C   0  0  0  0  0  0  0  0  0  0  0  0
    6.4270   -0.1970    1.2520 C   0  0  0  0  0  0  0  0  0  0  0  0
    6.9700    0.6270    0.1390 C   0  0  0  0  0  0  0  0  0  0  0  0
    5.9230    1.1730   -0.8110 C   0  0  0  0  0  0  0  0  0  0  0  0
    5.1480   -0.0290   -1.3060 C   0  0  0  0  0  0  0  0  0  0  0  0
    2.2870    0.2570   -0.9610 C   0  0  0  0  0  0  0  0  0  0  0  0
    0.8940    0.3260   -0.8660 C   0  0  0  0  0  0  0  0  0  0  0  0
   -3.5700    0.2340   -0.4120 C   0  0  0  0  0  0  0  0  0  0  0  0
   -4.4620    0.7300   -1.3140 C   0  0  0  0  0  0  0  0  0  0  0  0
   -5.8140    0.7300   -1.0640 C   0  0  0  0  0  0  0  0  0  0  0  0
   -6.6470    1.2210   -1.9650 C   0  0  0  0  0  0  0  0  0  0  0  0
   -6.0460    1.8660   -3.4630 Cl  0  0  0  0  0  0  0  0  0  0  0  0
   -6.2670    0.2090    0.1430 C   0  0  0  0  0  0  0  0  0  0  0  0
   -5.3440   -0.2770    1.0150 C   0  0  0  0  0  0  0  0  0  0  0  0
   -4.0310   -0.2640    0.7450 N   0  0  0  0  0  0  0  0  0  0  0  0
   -6.0660   -0.7380    2.1410 N   0  0  0  0  0  0  0  0  0  0  0  0
   -7.4770   -0.5090    1.9120 C   0  0  0  0  0  0  0  0  0  0  0  0
   -7.4980    0.1170    0.5680 C   0  0  0  0  0  0  0  0  0  0  0  0
  1  2  2  0
  2  3  1  0
  2 16  1  0
  3  4  1  0
  4  5  2  0
  4 15  1  0
  5  6  1  0
  6  7  2  0
  7  8  1  0
  7 14  1  0
  8  9  1  0
  8 13  1  0
  9 10  1  0
 10 11  1  0
 11 12  1  0
 12 13  1  0
 14 15  2  0
 16 17  2  0
 16 23  1  0
 17 18  1  0
 18 19  2  3
 18 21  1  0
 19 20  1  0
 21 22  1  0
 21 26  2  0
 22 23  2  0
 22 24  1  0
 24 25  1  0
 25 26  1  0
M  END
