
     RDKit          3D

 26 28  0  0  0  0  0  0  0  0999 V2000
   -2.9460    0.1950   -2.4090 C   0  0  0  0  0  0  0  0  0  0  0  0
   -2.3110    1.0240   -1.6240 C   0  0  0  0  0  0  0  0  0  0  0  0
   -2.0450    2.6410   -2.2700 Cl  0  0  0  0  0  0  0  0  0  0  0  0
   -1.8440    0.6670   -0.2490 C   0  0  0  0  0  0  0  0  0  0  0  0
   -1.1990    1.6750    0.3670 C   0  0  0  0  0  0  0  0  0  0  0  0
   -0.6220    1.6310    1.7340 C   0  0  0  0  0  0  0  0  0  0  0  0
    0.7200    2.2960    1.7210 C   0  0  0  0  0  0  0  0  0  0  0  0
    1.2710    2.5450    0.3320 C   0  0  0  0  0  0  0  0  0  0  0  0
    2.7680    2.4510    0.4110 C   0  0  0  0  0  0  0  0  0  0  0  0
    3.4660    2.0530   -0.8220 C   0  0  0  0  0  0  0  0  0  0  0  0
    3.0820    0.7640   -1.4400 C   0  0  0  0  0  0  0  0  0  0  0  0
    3.7680   -0.4310   -0.8050 C   0  0  0  0  0  0  0  0  0  0  0  0
    5.0460   -0.3560   -0.9300 O   0  0  0  0  0  0  0  0  0  0  0  0
    2.9350   -1.3690   -0.2200 N   0  0  0  0  0  0  0  0  0  0  0  0
    2.6050   -1.4450    1.2290 C   0  0  0  0  0  0  0  0  0  0  0  0
    1.2060   -2.0260    1.4250 C   0  0  0  0  0  0  0  0  0  0  0  0
    0.3400   -1.3850    0.3340 C   0  0  1  0  0  0  0  0  0  0  0  0
    0.7100   -2.1950   -0.9120 C   0  0  0  0  0  0  0  0  0  0  0  0
    2.2030   -2.4470   -0.9150 C   0  0  0  0  0  0  0  0  0  0  0  0
   -1.1090   -1.5180    0.6190 C   0  0  0  0  0  0  0  0  0  0  0  0
   -1.6470   -2.6120    1.1900 N   0  0  0  0  0  0  0  0  0  0  0  0
   -2.9390   -2.4200    1.2880 N   0  0  0  0  0  0  0  0  0  0  0  0
   -3.2240   -1.1810    0.7680 C   0  0  0  0  0  0  0  0  0  0  0  0
   -4.6250   -0.7060    0.7870 C   0  0  0  0  0  0  0  0  0  0  0  0
   -5.3680   -1.1640   -0.4300 C   0  0  0  0  0  0  0  0  0  0  0  0
   -2.0640   -0.6070    0.3430 N   0  0  0  0  0  0  0  0  0  0  0  0
  1  2  2  0
  2  3  1  0
  2  4  1  0
  4  5  2  0
  4 26  1  0
  5  6  1  0
  6  7  1  0
  7  8  1  0
  8  9  1  0
  9 10  1  0
 10 11  1  0
 11 12  1  0
 12 13  2  0
 12 14  1  0
 14 15  1  0
 14 19  1  0
 15 16  1  0
 16 17  1  0
 17 18  1  6
 17 20  1  0
 18 19  1  0
 20 21  2  0
 20 26  1  0
 21 22  1  0
 22 23  2  0
 23 24  1  0
 23 26  1  0
 24 25  1  0
M  END
