
     RDKit          3D

 26 28  0  0  0  0  0  0  0  0999 V2000
    1.4230   -3.0080    3.2360 C   0  0  0  0  0  0  0  0  0  0  0  0
    1.3790   -2.2590    2.1210 C   0  0  0  0  0  0  0  0  0  0  0  0
    0.1990   -1.5700    1.7520 N   0  0  0  0  0  0  0  0  0  0  0  0
    0.0540   -0.7490    0.5860 C   0  0  0  0  0  0  0  0  0  0  0  0
   -1.0180   -0.2190    0.3640 N   0  0  0  0  0  0  0  0  0  0  0  0
   -2.0490    0.4730   -0.1240 C   0  0  0  0  0  0  0  0  0  0  0  0
   -2.9010   -0.0620   -1.2250 C   0  0  2  0  0  0  0  0  0  0  0  0
   -4.0090    0.8740   -1.6610 C   0  0  0  0  0  0  0  0  0  0  0  0
   -3.6100   -1.2760   -0.6180 C   0  0  0  0  0  0  0  0  0  0  0  0
   -2.2100   -0.4880   -2.4670 C   0  0  0  0  0  0  0  0  0  0  0  0
   -2.4750    1.6670    0.3570 C   0  0  0  0  0  0  0  0  0  0  0  0
   -1.8650    2.3650    1.4870 C   0  0  0  0  0  0  0  0  0  0  0  0
   -2.6840    3.1620    2.1040 O   0  0  0  0  0  0  0  0  0  0  0  0
   -0.5820    2.3180    2.0000 N   0  0  0  0  0  0  0  0  0  0  0  0
    0.6760    2.6070    1.3060 C   0  0  0  0  0  0  0  0  0  0  0  0
    0.4480    3.1270   -0.0640 C   0  0  0  0  0  0  0  0  0  0  0  0
    0.9900    2.6670   -1.1620 C   0  0  0  0  0  0  0  0  0  0  0  0
    1.9610    1.5120   -1.2550 C   0  0  0  0  0  0  0  0  0  0  0  0
    1.2490    0.1820   -1.4530 C   0  0  0  0  0  0  0  0  0  0  0  0
    1.2330   -0.6440   -0.2510 N   0  0  0  0  0  0  0  0  0  0  0  0
    2.4480   -1.3180    0.0680 C   0  0  0  0  0  0  0  0  0  0  0  0
    3.6300   -1.4530   -0.5140 C   0  0  0  0  0  0  0  0  0  0  0  0
    4.0660   -0.7360   -2.0570 Cl  0  0  0  0  0  0  0  0  0  0  0  0
    4.5730   -2.2810    0.2990 C   0  0  0  0  0  0  0  0  0  0  0  0
    3.7230   -2.6940    1.4180 C   0  0  0  0  0  0  0  0  0  0  0  0
    2.5320   -2.1470    1.2810 C   0  0  0  0  0  0  0  0  0  0  0  0
  1  2  2  0
  2  3  1  0
  2 26  1  0
  3  4  1  0
  4  5  2  0
  4 20  1  0
  5  6  1  0
  6  7  1  0
  6 11  2  0
  7  8  1  6
  7  9  1  0
  7 10  1  0
 11 12  1  0
 12 13  2  0
 12 14  1  0
 14 15  1  0
 15 16  1  0
 16 17  2  0
 17 18  1  0
 18 19  1  0
 19 20  1  0
 20 21  1  0
 21 22  2  0
 21 26  1  0
 22 23  1  0
 22 24  1  0
 24 25  1  0
 25 26  2  0
M  END
