
     RDKit          3D

 12 11  0  0  0  0  0  0  0  0999 V2000
   -1.5980   -2.4090    0.8440 O   0  0  0  0  0  0  0  0  0  0  0  0
   -2.1440   -1.2980    0.8420 C   0  0  0  0  0  0  0  0  0  0  0  0
   -3.5490   -1.3850    1.1640 O   0  0  0  0  0  0  0  0  0  0  0  0
   -1.6130   -0.0000    0.5810 C   0  0  0  0  0  0  0  0  0  0  0  0
   -0.3930    0.4150    0.2640 C   0  0  0  0  0  0  0  0  0  0  0  0
   -0.3010    1.8900    0.0810 C   0  0  0  0  0  0  0  0  0  0  0  0
   -1.3710    2.5520    0.2460 O   0  0  0  0  0  0  0  0  0  0  0  0
    0.8570    2.4870   -0.2420 O   0  0  0  0  0  0  0  0  0  0  0  0
    0.7580   -0.4200    0.1010 C   0  0  0  0  0  0  0  0  0  0  0  0
    0.6080   -1.8050    0.2870 O   0  0  0  0  0  0  0  0  0  0  0  0
    1.9560   -0.0370   -0.2080 C   0  0  0  0  0  0  0  0  0  0  0  0
    2.9810   -1.0340   -0.3260 O   0  0  0  0  0  0  0  0  0  0  0  0
  1  2  2  0
  2  3  1  0
  2  4  1  0
  4  5  2  3
  5  6  1  0
  5  9  1  0
  6  7  2  0
  6  8  1  0
  9 10  1  0
  9 11  2  3
 11 12  1  0
M  CHG  3   3  -1   8  -1  10  -1
M  END
