
     RDKit          3D

 13 12  0  0  0  0  0  0  0  0999 V2000
   -3.3470   -0.3230    0.7520 O   0  0  0  0  0  0  0  0  0  0  0  0
   -2.7710   -0.0190   -0.2910 C   0  0  0  0  0  0  0  0  0  0  0  0
   -3.6600    0.2510   -1.3890 O   0  0  0  0  0  0  0  0  0  0  0  0
   -1.3810    0.0880   -0.5070 C   0  0  0  0  0  0  0  0  0  0  0  0
   -0.3610   -0.1060    0.3280 C   0  0  0  0  0  0  0  0  0  0  0  0
   -0.4950   -0.4850    1.7010 C   0  0  0  0  0  0  0  0  0  0  0  0
   -1.6140   -0.6680    2.2310 O   0  0  0  0  0  0  0  0  0  0  0  0
    0.5680   -0.6790    2.5440 O   0  0  0  0  0  0  0  0  0  0  0  0
    0.9810    0.0990   -0.2550 C   0  0  0  0  0  0  0  0  0  0  0  0
    0.9040    0.4780   -1.6500 O   0  0  0  0  0  0  0  0  0  0  0  0
    2.1420    0.0010    0.2490 C   0  0  0  0  0  0  0  0  0  0  0  0
    2.5620   -0.3270    1.5040 O   0  0  0  0  0  0  0  0  0  0  0  0
    3.2540    0.2790   -0.6300 O   0  0  0  0  0  0  0  0  0  0  0  0
  1  2  2  0
  2  3  1  0
  2  4  1  0
  4  5  2  3
  5  6  1  0
  5  9  1  0
  6  7  2  0
  6  8  1  0
  9 10  1  0
  9 11  2  3
 11 12  1  0
 11 13  1  0
M  CHG  3   3  -1   8  -1  12  -1
M  END
