
     RDKit          3D

 12 11  0  0  0  0  0  0  0  0999 V2000
    1.5600    2.3030   -0.3120 O   0  0  0  0  0  0  0  0  0  0  0  0
    2.0970    1.1770   -0.1980 C   0  0  0  0  0  0  0  0  0  0  0  0
    3.3510    1.0900    0.3760 O   0  0  0  0  0  0  0  0  0  0  0  0
    1.3480   -0.0330   -0.6930 C   0  0  0  0  0  0  0  0  0  0  0  0
    0.3490   -0.3380    0.3220 C   0  0  0  0  0  0  0  0  0  0  0  0
   -0.9430   -0.3880    0.2620 C   0  0  0  0  0  0  0  0  0  0  0  0
   -1.7220   -0.7240    1.4470 C   0  0  0  0  0  0  0  0  0  0  0  0
   -1.0940   -0.9580    2.5050 O   0  0  0  0  0  0  0  0  0  0  0  0
   -3.0970   -0.7980    1.4660 O   0  0  0  0  0  0  0  0  0  0  0  0
   -1.6730   -0.1220   -0.9390 C   0  0  0  0  0  0  0  0  0  0  0  0
   -2.9530   -0.1860   -0.9420 O   0  0  0  0  0  0  0  0  0  0  0  0
   -1.1330    0.2140   -2.1610 O   0  0  0  0  0  0  0  0  0  0  0  0
  1  2  2  0
  2  3  1  0
  2  4  1  0
  4  5  1  0
  5  6  2  3
  6  7  1  0
  6 10  1  0
  7  8  2  0
  7  9  1  0
 10 11  2  0
 10 12  1  0
M  CHG  3   3  -1   9  -1  12  -1
M  END
