
     RDKit          3D

 24 26  0  0  0  0  0  0  0  0999 V2000
   -1.7020    2.4800    2.1840 N   0  0  0  0  0  0  0  0  0  0  0  0
   -1.8620    0.8100    2.5280 S   0  0  2  0  0  0  0  0  0  0  0  0
   -2.8240    0.6870    3.6990 O   0  0  0  0  0  0  0  0  0  0  0  0
   -0.5900    0.1720    2.9420 O   0  0  0  0  0  0  0  0  0  0  0  0
   -2.4850   -0.0810    1.1390 C   0  0  0  0  0  0  0  0  0  0  0  0
   -3.7670   -0.2860    0.9020 C   0  0  0  0  0  0  0  0  0  0  0  0
   -3.9000   -1.0600   -0.3350 C   0  0  1  0  0  0  0  0  0  0  0  0
   -4.9010   -0.2640   -1.5750 S   0  0  0  0  0  0  0  0  0  0  0  0
   -6.5160    0.0320   -1.0460 N   0  0  0  0  0  0  0  0  0  0  0  0
   -4.8040   -0.9170   -2.9220 O   0  0  0  0  0  0  0  0  0  0  0  0
   -2.5060   -1.2670   -0.7700 C   0  0  0  0  0  0  0  0  0  0  0  0
   -1.6830   -0.6960    0.0890 C   0  0  0  0  0  0  0  0  0  0  0  0
   -0.2400   -0.6940   -0.0130 N   0  0  0  0  0  0  0  0  0  0  0  0
    0.4990    0.4740   -0.4530 C   0  0  0  0  0  0  0  0  0  0  0  0
    1.8370    0.4970    0.2220 C   0  0  0  0  0  0  0  0  0  0  0  0
    2.6720   -0.7140   -0.0260 C   0  0  2  0  0  0  0  0  0  0  0  0
    3.8050   -0.4820   -0.8630 N   0  0  0  0  0  0  0  0  0  0  0  0
    4.8040    0.4360   -0.5060 C   0  0  0  0  0  0  0  0  0  0  0  0
    4.8670    1.2190    0.6280 C   0  0  0  0  0  0  0  0  0  0  0  0
    5.9970    1.9660    0.5840 N   0  0  0  0  0  0  0  0  0  0  0  0
    6.6220    1.6630   -0.5370 N   0  0  0  0  0  0  0  0  0  0  0  0
    5.9340    0.7410   -1.2270 C   0  0  0  0  0  0  0  0  0  0  0  0
    1.7840   -1.8020   -0.6000 C   0  0  0  0  0  0  0  0  0  0  0  0
    0.5560   -1.8620    0.3180 C   0  0  0  0  0  0  0  0  0  0  0  0
  2  1  1  6
  2  3  2  0
  2  4  2  0
  2  5  1  0
  5  6  2  0
  5 12  1  0
  7  6  1  1
  7  8  1  0
  7 11  1  0
  8  9  1  1
  8 10  2  0
 11 12  2  0
 12 13  1  0
 13 14  1  0
 13 24  1  0
 14 15  1  0
 15 16  1  0
 16 17  1  6
 16 23  1  0
 17 18  1  0
 18 19  1  0
 18 22  2  0
 19 20  2  0
 20 21  1  0
 21 22  1  0
 23 24  1  0
M  CHG  1   9   1
M  END
