
     RDKit          3D

 12 11  0  0  0  0  0  0  0  0999 V2000
    2.6640   -0.6370   -0.0390 O   0  0  0  0  0  0  0  0  0  0  0  0
    1.9190   -1.3110   -0.7870 C   0  0  0  0  0  0  0  0  0  0  0  0
    2.5190   -2.1960   -1.6650 O   0  0  0  0  0  0  0  0  0  0  0  0
    0.4830   -1.2010   -0.7680 C   0  0  0  0  0  0  0  0  0  0  0  0
   -0.1800   -0.3900    0.0290 C   0  0  0  0  0  0  0  0  0  0  0  0
   -1.6230   -0.3540   -0.0300 C   0  0  0  0  0  0  0  0  0  0  0  0
   -2.3020    0.4630    0.7730 C   0  0  0  0  0  0  0  0  0  0  0  0
   -1.6050    1.2540    1.6390 O   0  0  0  0  0  0  0  0  0  0  0  0
    0.5100    0.4230    0.9180 O   0  0  0  0  0  0  0  0  0  0  0  0
    0.9190    1.6920    0.5540 C   0  0  0  0  0  0  0  0  0  0  0  0
    0.6920    2.1700   -0.5820 O   0  0  0  0  0  0  0  0  0  0  0  0
    1.6040    2.4710    1.4670 O   0  0  0  0  0  0  0  0  0  0  0  0
  1  2  2  0
  2  3  1  0
  2  4  1  0
  4  5  2  3
  5  6  1  0
  5  9  1  0
  6  7  2  3
  7  8  1  0
  9 10  1  0
 10 11  2  0
 10 12  1  0
M  CHG  3   3  -1   8  -1  12  -1
M  END
