
     RDKit          3D

 22 25  0  0  0  0  0  0  0  0999 V2000
   -1.3610    2.2780    0.3350 C   0  0  0  0  0  0  0  0  0  0  0  0
   -0.4670    1.3360   -0.4270 C   0  0  1  0  0  0  0  0  0  0  0  0
   -0.2690    2.0250   -1.7870 C   0  0  0  0  0  0  0  0  0  0  0  0
    0.8520    1.2580    0.2450 C   0  0  2  0  0  0  0  0  0  0  0  0
    1.9140    2.2130   -0.1770 C   0  0  0  0  0  0  0  0  0  0  0  0
    3.0490    1.9400    0.7690 C   0  0  0  0  0  0  0  0  0  0  0  0
    3.1790    0.8330    1.4590 C   0  0  0  0  0  0  0  0  0  0  0  0
    2.2350   -0.3190    1.4160 C   0  0  2  0  0  0  0  0  0  0  0  0
    2.8840   -1.6450    1.5310 C   0  0  0  0  0  0  0  0  0  0  0  0
    3.6560   -2.0350    0.2900 C   0  0  0  0  0  0  0  0  0  0  0  0
    2.7640   -1.8560   -0.9050 C   0  0  0  0  0  0  0  0  0  0  0  0
    2.2760   -0.4220   -0.9960 C   0  0  0  0  0  0  0  0  0  0  0  0
    1.3910   -0.1370    0.1610 C   0  0  2  0  0  0  0  0  0  0  0  0
    0.1390   -0.9450    0.1660 C   0  0  0  0  0  0  0  0  0  0  0  0
   -0.9130   -0.0560   -0.5300 C   0  0  2  0  0  0  0  0  0  0  0  0
   -1.0040   -0.5420   -1.9880 C   0  0  0  0  0  0  0  0  0  0  0  0
   -2.2010   -0.4680    0.0830 C   0  0  2  0  0  0  0  0  0  0  0  0
   -2.3420   -1.9790   -0.2140 C   0  0  0  0  0  0  0  0  0  0  0  0
   -3.4290    0.1570   -0.4480 C   0  0  0  0  0  0  0  0  0  0  0  0
   -4.3730    0.1160    0.7380 C   0  0  0  0  0  0  0  0  0  0  0  0
   -3.5450   -0.5190    1.8340 C   0  0  0  0  0  0  0  0  0  0  0  0
   -2.2270   -0.4310    1.4720 O   0  0  0  0  0  0  0  0  0  0  0  0
  2  1  1  1
  2  3  1  0
  2  4  1  0
  2 15  1  0
  4  5  1  6
  4 13  1  0
  5  6  1  0
  6  7  2  0
  7  8  1  0
  8  9  1  6
  8 13  1  0
  9 10  1  0
 10 11  1  0
 11 12  1  0
 13 12  1  6
 13 14  1  0
 14 15  1  0
 15 16  1  6
 15 17  1  0
 17 18  1  1
 17 19  1  0
 17 22  1  0
 19 20  1  0
 20 21  1  0
 21 22  1  0
M  END
