
     RDKit          3D

 23 26  0  0  0  0  0  0  0  0999 V2000
    7.4990   -0.5070   -0.5780 C   0  0  0  0  0  0  0  0  0  0  0  0
    6.2510    0.1540   -1.1150 C   0  0  0  0  0  0  0  0  0  0  0  0
    5.5020    0.9020   -0.0330 C   0  0  2  0  0  0  0  0  0  0  0  0
    5.0700   -0.0150    1.0920 C   0  0  0  0  0  0  0  0  0  0  0  0
    3.9680   -0.7860    0.4050 C   0  0  0  0  0  0  0  0  0  0  0  0
    3.4670    0.1740   -0.5930 C   0  0  1  0  0  0  0  0  0  0  0  0
    2.0580    0.6130   -0.4480 C   0  0  2  0  0  0  0  0  0  0  0  0
    1.7010    1.2920    0.8130 C   0  0  0  0  0  0  0  0  0  0  0  0
    0.2970    0.8150    1.2070 C   0  0  0  0  0  0  0  0  0  0  0  0
   -0.1970    0.2270   -0.0740 C   0  0  1  0  0  0  0  0  0  0  0  0
   -1.3750   -0.6680    0.0600 C   0  0  0  0  0  0  0  0  0  0  0  0
   -2.5100   -0.0590   -0.7340 C   0  0  1  0  0  0  0  0  0  0  0  0
   -3.7610   -0.8920   -0.6440 C   0  0  2  0  0  0  0  0  0  0  0  0
   -4.8970   -0.3190   -1.4140 C   0  0  0  0  0  0  0  0  0  0  0  0
   -5.9390    0.2410   -0.4470 C   0  0  0  0  0  0  0  0  0  0  0  0
   -6.6110   -0.9580    0.1940 C   0  0  0  0  0  0  0  0  0  0  0  0
   -5.5260   -1.8660    0.7290 C   0  0  0  0  0  0  0  0  0  0  0  0
   -4.1780   -1.1700    0.7650 C   0  0  0  0  0  0  0  0  0  0  0  0
   -2.6920    1.3450   -0.2530 C   0  0  0  0  0  0  0  0  0  0  0  0
   -1.4190    2.1110   -0.6070 C   0  0  0  0  0  0  0  0  0  0  0  0
   -0.3910    1.2710   -0.9780 O   0  0  0  0  0  0  0  0  0  0  0  0
    1.0550   -0.5170   -0.5620 C   0  0  0  0  0  0  0  0  0  0  0  0
    4.2850    1.2970   -0.5760 O   0  0  0  0  0  0  0  0  0  0  0  0
  1  2  1  0
  3  2  1  6
  3  4  1  0
  3 23  1  0
  4  5  1  0
  6  5  1  1
  6  7  1  0
  6 23  1  0
  7  8  1  1
  7 22  1  0
  8  9  1  0
 10  9  1  1
 10 11  1  0
 10 21  1  0
 10 22  1  0
 12 11  1  1
 12 13  1  0
 12 19  1  0
 13 14  1  1
 13 18  1  0
 14 15  1  0
 15 16  1  0
 16 17  1  0
 17 18  1  0
 19 20  1  0
 20 21  1  0
M  END
