
     RDKit          3D

 23 26  0  0  0  0  0  0  0  0999 V2000
    3.6430   -1.4400   -0.5650 C   0  0  0  0  0  0  0  0  0  0  0  0
    3.4110   -0.2230    0.3030 C   0  0  1  0  0  0  0  0  0  0  0  0
    3.4500   -0.6900    1.7380 C   0  0  0  0  0  0  0  0  0  0  0  0
    4.6520    0.6630    0.1160 C   0  0  0  0  0  0  0  0  0  0  0  0
    2.1670    0.5370   -0.0290 C   0  0  1  0  0  0  0  0  0  0  0  0
    2.2280    1.0230   -1.4580 C   0  0  0  0  0  0  0  0  0  0  0  0
    0.8650    1.5520   -1.8730 C   0  0  2  0  0  0  0  0  0  0  0  0
    0.4370    2.5020   -0.7980 C   0  0  0  0  0  0  0  0  0  0  0  0
   -0.2550    1.6920    0.2790 C   0  0  0  0  0  0  0  0  0  0  0  0
   -0.3430    0.3030   -0.2740 C   0  0  1  0  0  0  0  0  0  0  0  0
   -1.4200   -0.5430    0.2380 C   0  0  1  0  0  0  0  0  0  0  0  0
   -2.8140   -0.0880    0.2850 C   0  0  2  0  0  0  0  0  0  0  0  0
   -3.5210    0.3610   -0.9180 C   0  0  0  0  0  0  0  0  0  0  0  0
   -4.8440    0.9220   -0.3420 C   0  0  0  0  0  0  0  0  0  0  0  0
   -4.4590    1.4640    1.0100 C   0  0  0  0  0  0  0  0  0  0  0  0
   -3.1830    0.8160    1.4160 C   0  0  0  0  0  0  0  0  0  0  0  0
   -2.5710    0.9880    2.4540 O   0  0  0  0  0  0  0  0  0  0  0  0
   -1.4530   -1.8510   -0.5780 C   0  0  0  0  0  0  0  0  0  0  0  0
   -1.8190   -2.8570    0.4910 C   0  0  0  0  0  0  0  0  0  0  0  0
   -1.1580   -2.2660    1.6850 C   0  0  0  0  0  0  0  0  0  0  0  0
   -1.0870   -0.9230    1.5520 O   0  0  0  0  0  0  0  0  0  0  0  0
   -0.1320    0.3870   -1.7520 C   0  0  0  0  0  0  0  0  0  0  0  0
    0.9880   -0.3530    0.2180 C   0  0  0  0  0  0  0  0  0  0  0  0
  2  1  1  6
  2  3  1  0
  2  4  1  0
  2  5  1  0
  5  6  1  6
  5 23  1  0
  7  6  1  1
  7  8  1  0
  7 22  1  0
  8  9  1  0
 10  9  1  1
 10 11  1  0
 10 22  1  0
 10 23  1  0
 11 12  1  0
 11 18  1  6
 11 21  1  0
 12 13  1  6
 12 16  1  0
 13 14  1  0
 14 15  1  0
 15 16  1  0
 16 17  2  0
 18 19  1  0
 19 20  1  0
 20 21  1  0
M  END
