
     RDKit          3D

 23 26  0  0  0  0  0  0  0  0999 V2000
    5.0790   -1.3170   -1.7700 C   0  0  0  0  0  0  0  0  0  0  0  0
    3.8870   -0.9280   -0.9120 C   0  0  0  0  0  0  0  0  0  0  0  0
    3.9550   -0.0880    0.0700 C   0  0  0  0  0  0  0  0  0  0  0  0
    4.7620    0.8460    0.9170 C   0  0  0  0  0  0  0  0  0  0  0  0
    3.8130    1.9960    1.0650 C   0  0  0  0  0  0  0  0  0  0  0  0
    2.4580    1.5090    0.6030 C   0  0  0  0  0  0  0  0  0  0  0  0
    2.5590    0.0350    0.6490 C   0  0  1  0  0  0  0  0  0  0  0  0
    1.7440   -0.8180   -0.1590 C   0  0  0  0  0  0  0  0  0  0  0  0
    0.3110   -1.1400   -0.1070 C   0  0  0  0  0  0  0  0  0  0  0  0
   -0.1940   -1.9670   -0.9280 O   0  0  0  0  0  0  0  0  0  0  0  0
   -0.6090   -0.5360    0.8850 C   0  0  1  0  0  0  0  0  0  0  0  0
   -0.0360   -0.7700    2.2610 C   0  0  0  0  0  0  0  0  0  0  0  0
   -0.8470    0.9280    0.6170 C   0  0  0  0  0  0  0  0  0  0  0  0
   -2.3650    1.0420    0.4620 C   0  0  1  0  0  0  0  0  0  0  0  0
   -2.8080    0.8960   -0.9640 C   0  0  0  0  0  0  0  0  0  0  0  0
   -4.3060    1.0810   -0.9900 C   0  0  1  0  0  0  0  0  0  0  0  0
   -4.9780    0.2290   -2.0240 C   0  0  0  0  0  0  0  0  0  0  0  0
   -4.8730    0.7310    0.3640 C   0  0  0  0  0  0  0  0  0  0  0  0
   -4.1940   -0.5240    0.8580 C   0  0  0  0  0  0  0  0  0  0  0  0
   -2.7830   -0.2060    1.2250 C   0  0  1  0  0  0  0  0  0  0  0  0
   -1.8700   -1.1260    0.7880 O   0  0  0  0  0  0  0  0  0  0  0  0
    2.5320   -1.3990   -1.0880 C   0  0  0  0  0  0  0  0  0  0  0  0
    2.1310   -2.3700   -2.1440 C   0  0  0  0  0  0  0  0  0  0  0  0
  1  2  1  0
  2  3  2  0
  2 22  1  0
  3  4  1  0
  3  7  1  0
  4  5  1  0
  5  6  1  0
  7  6  1  6
  7  8  1  0
  8  9  1  0
  8 22  2  0
  9 10  2  0
  9 11  1  0
 11 12  1  1
 11 13  1  0
 11 21  1  0
 14 13  1  6
 14 15  1  0
 14 20  1  0
 15 16  1  0
 16 17  1  6
 16 18  1  0
 18 19  1  0
 20 19  1  6
 20 21  1  0
 22 23  1  0
M  END
