
     RDKit          3D

 23 25  0  0  0  0  0  0  0  0999 V2000
    4.6630    3.6470    0.2920 C   0  0  0  0  0  0  0  0  0  0  0  0
    3.7950    2.7770   -0.5140 C   0  0  0  0  0  0  0  0  0  0  0  0
    2.8670    2.0010    0.0280 C   0  0  0  0  0  0  0  0  0  0  0  0
    1.9750    1.1140   -0.7390 C   0  0  1  0  0  0  0  0  0  0  0  0
    2.2890   -0.3370   -0.5270 C   0  0  0  0  0  0  0  0  0  0  0  0
    1.8280   -0.8700    0.8110 C   0  0  2  0  0  0  0  0  0  0  0  0
    1.8230   -2.3520    0.7350 C   0  0  2  0  0  0  0  0  0  0  0  0
    1.3970   -3.0870    1.9560 C   0  0  0  0  0  0  0  0  0  0  0  0
    3.2290   -2.8120    0.3820 C   0  0  0  0  0  0  0  0  0  0  0  0
    0.5890   -0.1980    1.2320 C   0  0  0  0  0  0  0  0  0  0  0  0
   -0.2610    0.2870    0.0470 C   0  0  1  0  0  0  0  0  0  0  0  0
    0.5160    1.4250   -0.5690 C   0  0  0  0  0  0  0  0  0  0  0  0
   -0.4620   -0.7710   -0.8030 O   0  0  0  0  0  0  0  0  0  0  0  0
   -1.8050   -1.1910   -0.6720 C   0  0  2  0  0  0  0  0  0  0  0  0
   -1.9900   -2.1490    0.4560 C   0  0  0  0  0  0  0  0  0  0  0  0
   -2.1400   -1.9140   -1.9610 C   0  0  0  0  0  0  0  0  0  0  0  0
   -2.5080    0.0850   -0.4960 C   0  0  1  0  0  0  0  0  0  0  0  0
   -2.5830    0.8830   -1.7720 C   0  0  0  0  0  0  0  0  0  0  0  0
   -3.8360    0.0760    0.1500 C   0  0  0  0  0  0  0  0  0  0  0  0
   -4.2020    1.5500    0.3540 C   0  0  0  0  0  0  0  0  0  0  0  0
   -3.0990    2.3690    0.8920 C   0  0  0  0  0  0  0  0  0  0  0  0
   -1.8400    2.1110    0.3710 O   0  0  0  0  0  0  0  0  0  0  0  0
   -1.5770    0.7830    0.5160 C   0  0  2  0  0  0  0  0  0  0  0  0
  1  2  1  0
  2  3  2  3
  4  3  1  1
  4  5  1  0
  4 12  1  0
  6  5  1  6
  6  7  1  0
  6 10  1  0
  7  8  1  1
  7  9  1  0
 11 10  1  1
 11 12  1  0
 11 13  1  0
 11 23  1  0
 13 14  1  0
 14 15  1  1
 14 16  1  0
 14 17  1  0
 17 18  1  6
 17 19  1  0
 17 23  1  0
 19 20  1  0
 20 21  1  0
 21 22  1  0
 23 22  1  6
M  END
