
     RDKit          3D

 16 17  0  0  0  0  0  0  0  0999 V2000
    4.3200   -0.8150   -0.7500 C   0  0  0  0  0  0  0  0  0  0  0  0
    3.6420    0.3170   -0.2980 O   0  0  0  0  0  0  0  0  0  0  0  0
    2.2620    0.3800   -0.1260 C   0  0  0  0  0  0  0  0  0  0  0  0
    1.4350   -0.6900   -0.3950 C   0  0  0  0  0  0  0  0  0  0  0  0
    0.0660   -0.6340   -0.2270 C   0  0  0  0  0  0  0  0  0  0  0  0
   -0.7370   -1.6830   -0.4910 N   0  0  0  0  0  0  0  0  0  0  0  0
   -2.0720   -1.6270   -0.3270 C   0  0  0  0  0  0  0  0  0  0  0  0
   -2.7490   -2.6490   -0.5950 O   0  0  0  0  0  0  0  0  0  0  0  0
   -2.7310   -0.5010    0.1220 C   0  0  0  0  0  0  0  0  0  0  0  0
   -4.2060   -0.4390    0.3030 C   0  0  0  0  0  0  0  0  0  0  0  0
   -1.9100    0.5920    0.3980 C   0  0  0  0  0  0  0  0  0  0  0  0
   -2.5290    1.7360    0.8490 O   0  0  0  0  0  0  0  0  0  0  0  0
   -0.5350    0.5240    0.2260 C   0  0  0  0  0  0  0  0  0  0  0  0
    0.2880    1.5980    0.4960 C   0  0  0  0  0  0  0  0  0  0  0  0
    1.6540    1.5340    0.3260 C   0  0  0  0  0  0  0  0  0  0  0  0
    2.4840    2.6170    0.5980 O   0  0  0  0  0  0  0  0  0  0  0  0
  1  2  1  0
  2  3  1  0
  3  4  2  0
  3 15  1  0
  4  5  1  0
  5  6  1  0
  5 13  2  0
  6  7  1  0
  7  8  2  0
  7  9  1  0
  9 10  1  0
  9 11  2  0
 11 12  1  0
 11 13  1  0
 13 14  1  0
 14 15  2  0
 15 16  1  0
M  END
