
     RDKit          3D

 20 22  0  0  0  0  0  0  0  0999 V2000
    5.1850    2.0990   -0.9690 N   0  0  0  0  0  0  0  0  0  0  0  0
    4.4840    0.8780   -0.6720 C   0  0  0  0  0  0  0  0  0  0  0  0
    3.1380    0.8500   -0.6020 N   0  0  0  0  0  0  0  0  0  0  0  0
    2.4470   -0.2720   -0.3270 C   0  0  0  0  0  0  0  0  0  0  0  0
    1.0890   -0.5270   -0.2070 C   0  0  0  0  0  0  0  0  0  0  0  0
   -0.0040    0.4600   -0.3690 C   0  0  0  0  0  0  0  0  0  0  0  0
   -1.2700   -0.1740   -0.1720 N   0  0  1  0  0  0  0  0  0  0  0  0
   -1.6790   -0.2280    1.2040 C   0  0  0  0  0  0  0  0  0  0  0  0
   -3.1490    0.1310    1.2560 C   0  0  2  0  0  0  0  0  0  0  0  0
   -3.8680   -0.6870    2.1150 O   0  0  0  0  0  0  0  0  0  0  0  0
   -3.5550   -0.0470   -0.1890 C   0  0  1  0  0  0  0  0  0  0  0  0
   -4.8150    0.7180   -0.5190 C   0  0  0  0  0  0  0  0  0  0  0  0
   -5.1790    0.5470   -1.8500 O   0  0  0  0  0  0  0  0  0  0  0  0
   -2.3440    0.5290   -0.8940 C   0  0  0  0  0  0  0  0  0  0  0  0
    1.0050   -1.8680    0.0860 C   0  0  0  0  0  0  0  0  0  0  0  0
    2.2340   -2.4090    0.1450 N   0  0  0  0  0  0  0  0  0  0  0  0
    3.1360   -1.4480   -0.1060 C   0  0  0  0  0  0  0  0  0  0  0  0
    4.5120   -1.4120   -0.1790 C   0  0  0  0  0  0  0  0  0  0  0  0
    5.1230   -2.5000    0.0270 O   0  0  0  0  0  0  0  0  0  0  0  0
    5.1760   -0.2590   -0.4590 N   0  0  0  0  0  0  0  0  0  0  0  0
  1  2  1  0
  2  3  1  0
  2 20  2  0
  3  4  1  0
  4  5  1  0
  4 17  2  0
  5  6  1  0
  5 15  2  0
  7  6  1  1
  7  8  1  0
  7 14  1  0
  8  9  1  0
  9 10  1  1
  9 11  1  0
 11 12  1  1
 11 14  1  0
 12 13  1  0
 15 16  1  0
 16 17  1  0
 17 18  1  0
 18 19  2  0
 18 20  1  0
M  CHG  2   7   1  20   1
M  END
