
     RDKit          3D

 15 16  0  0  0  0  0  0  0  0999 V2000
   -2.4950   -2.2240    0.3050 C   0  0  0  0  0  0  0  0  0  0  0  0
   -2.8170   -0.8030    0.0210 C   0  0  0  0  0  0  0  0  0  0  0  0
   -4.1860   -0.4260   -0.0150 N   0  0  0  0  0  0  0  0  0  0  0  0
   -1.8640    0.0860   -0.1930 C   0  0  0  0  0  0  0  0  0  0  0  0
   -0.4490   -0.2600   -0.1650 C   0  0  0  0  0  0  0  0  0  0  0  0
    0.4810    0.6800   -0.3110 C   0  0  0  0  0  0  0  0  0  0  0  0
    1.8840    0.2860   -0.2760 C   0  0  0  0  0  0  0  0  0  0  0  0
    2.8330    1.2100   -0.4200 C   0  0  0  0  0  0  0  0  0  0  0  0
    4.1800    0.8610   -0.3910 O   0  0  0  0  0  0  0  0  0  0  0  0
    4.5050   -0.3220    0.3330 C   0  0  0  0  0  0  0  0  0  0  0  0
    3.6160   -1.4200   -0.2620 C   0  0  0  0  0  0  0  0  0  0  0  0
    2.2820   -1.0160   -0.0990 O   0  0  0  0  0  0  0  0  0  0  0  0
    0.0940    2.0010   -0.4910 O   0  0  0  0  0  0  0  0  0  0  0  0
   -1.1590    2.4570    0.0420 C   0  0  0  0  0  0  0  0  0  0  0  0
   -2.2030    1.5050   -0.4770 C   0  0  0  0  0  0  0  0  0  0  0  0
  1  2  1  0
  2  3  1  0
  2  4  2  3
  4  5  1  0
  4 15  1  0
  5  6  2  0
  6  7  1  0
  6 13  1  0
  7  8  2  0
  7 12  1  0
  8  9  1  0
  9 10  1  0
 10 11  1  0
 11 12  1  0
 13 14  1  0
 14 15  1  0
M  END
