
     RDKit          3D

 16 17  0  0  0  0  0  0  0  0999 V2000
   -0.5570   -1.9020   -1.8690 O   0  0  0  0  0  0  0  0  0  0  0  0
   -1.3550   -1.3340   -1.1420 C   0  0  0  0  0  0  0  0  0  0  0  0
   -2.6610   -1.6940   -0.9830 C   0  0  0  0  0  0  0  0  0  0  0  0
   -3.4450   -0.9660   -0.1360 C   0  0  0  0  0  0  0  0  0  0  0  0
   -3.0490    0.0860    0.5280 O   0  0  0  0  0  0  0  0  0  0  0  0
   -1.7670    0.4570    0.3770 C   0  0  0  0  0  0  0  0  0  0  0  0
   -1.2680    1.6520    1.1050 C   0  0  0  0  0  0  0  0  0  0  0  0
   -1.9800    2.7910    0.6080 O   0  0  0  0  0  0  0  0  0  0  0  0
   -0.9180   -0.2150   -0.4140 C   0  0  0  0  0  0  0  0  0  0  0  0
    0.5550   -0.0610   -0.3840 C   0  0  0  0  0  0  0  0  0  0  0  0
    1.1530   -0.6910    0.6670 C   0  0  0  0  0  0  0  0  0  0  0  0
    2.5690   -0.6910    0.8680 C   0  0  0  0  0  0  0  0  0  0  0  0
    3.1700   -1.3370    1.9420 O   0  0  0  0  0  0  0  0  0  0  0  0
    3.3130   -0.0530    0.0060 C   0  0  0  0  0  0  0  0  0  0  0  0
    2.7550    0.6390   -1.0870 N   0  0  0  0  0  0  0  0  0  0  0  0
    1.3440    0.5330   -1.4290 C   0  0  0  0  0  0  0  0  0  0  0  0
  1  2  2  0
  2  3  1  0
  2  9  1  0
  3  4  2  0
  4  5  1  0
  5  6  1  0
  6  7  1  0
  6  9  2  0
  7  8  1  0
  9 10  1  0
 10 11  2  0
 10 16  1  0
 11 12  1  0
 12 13  1  0
 12 14  2  0
 14 15  1  0
 15 16  1  0
M  END
