
     RDKit          3D

 16 17  0  0  0  0  0  0  0  0999 V2000
   -3.5130   -0.8810   -1.0830 N   0  0  0  0  0  0  0  0  0  0  0  0
   -2.1340   -0.6100   -0.9280 C   0  0  0  0  0  0  0  0  0  0  0  0
   -1.3050   -0.7540   -1.9480 C   0  0  0  0  0  0  0  0  0  0  0  0
    0.1060   -0.4690   -1.7640 C   0  0  0  0  0  0  0  0  0  0  0  0
    0.5820   -0.0650   -0.5810 C   0  0  0  0  0  0  0  0  0  0  0  0
    2.0320    0.2020   -0.4850 C   0  0  0  0  0  0  0  0  0  0  0  0
    2.9140    0.0790   -1.4620 O   0  0  0  0  0  0  0  0  0  0  0  0
    4.1030    0.4010   -1.0100 C   0  0  0  0  0  0  0  0  0  0  0  0
    4.0250    0.7540    0.3200 C   0  0  0  0  0  0  0  0  0  0  0  0
    2.6710    0.6200    0.6480 C   0  0  0  0  0  0  0  0  0  0  0  0
    2.2000    0.8890    1.9090 O   0  0  0  0  0  0  0  0  0  0  0  0
   -0.2600    0.0940    0.5020 O   0  0  0  0  0  0  0  0  0  0  0  0
   -1.6230   -0.1690    0.3660 C   0  0  0  0  0  0  0  0  0  0  0  0
   -2.4720   -0.0330    1.3690 C   0  0  0  0  0  0  0  0  0  0  0  0
   -2.0630    0.4000    2.6980 C   0  0  0  0  0  0  0  0  0  0  0  0
   -2.8840    0.5200    3.6260 O   0  0  0  0  0  0  0  0  0  0  0  0
  1  2  1  0
  2  3  2  0
  2 13  1  0
  3  4  1  0
  4  5  2  0
  5  6  1  0
  5 12  1  0
  6  7  1  0
  6 10  2  0
  7  8  1  0
  8  9  2  0
  9 10  1  0
 10 11  1  0
 12 13  1  0
 13 14  2  3
 14 15  1  0
 15 16  2  0
M  END
