
     RDKit          3D

 43 45  0  0  0  0  0  0  0  0999 V2000
    3.3170    3.4150   -0.2440 C   0  0  0  0  0  0  0  0  0  0  0  0
    2.6880    2.4040   -1.0240 O   0  0  0  0  0  0  0  0  0  0  0  0
    1.4240    1.9210   -0.7350 C   0  0  0  0  0  0  0  0  0  0  0  0
    0.8860    2.4450    0.2730 O   0  0  0  0  0  0  0  0  0  0  0  0
    0.7400    0.8480   -1.5670 C   0  0  2  0  0  0  0  0  0  0  0  0
   -0.5520    0.7080   -0.9450 N   0  0  0  0  0  0  0  0  0  0  0  0
   -1.8760    0.8850   -1.1840 C   0  0  0  0  0  0  0  0  0  0  0  0
   -2.4640    0.0990   -2.0230 O   0  0  0  0  0  0  0  0  0  0  0  0
   -2.9170    1.8290   -0.6800 C   0  0  2  0  0  0  0  0  0  0  0  0
   -2.3540    3.1570   -0.1930 C   0  0  0  0  0  0  0  0  0  0  0  0
   -3.5580    3.9760    0.2690 C   0  0  0  0  0  0  0  0  0  0  0  0
   -3.1480    5.2240    0.7390 O   0  0  0  0  0  0  0  0  0  0  0  0
   -4.2030    5.8990    1.1250 O   0  0  0  0  0  0  0  0  0  0  0  0
   -3.6790    1.2230    0.3210 O   0  0  0  0  0  0  0  0  0  0  0  0
   -4.4140    0.0860    0.4820 C   0  0  0  0  0  0  0  0  0  0  0  0
   -5.7500   -0.0440    0.0980 N   0  0  0  0  0  0  0  0  0  0  0  0
   -6.2350   -1.2160    0.3610 C   0  0  0  0  0  0  0  0  0  0  0  0
   -5.2190   -1.9230    0.9410 C   0  0  0  0  0  0  0  0  0  0  0  0
   -4.0970   -1.1100    1.0090 N   0  0  0  0  0  0  0  0  0  0  0  0
   -2.8930   -1.5830    1.5760 C   0  0  0  0  0  0  0  0  0  0  0  0
   -2.9860   -1.7840    2.8680 O   0  0  0  0  0  0  0  0  0  0  0  0
   -1.5430   -1.9300    1.1410 C   0  0  1  0  0  0  0  0  0  0  0  0
   -1.0600   -3.2080    1.8690 C   0  0  0  0  0  0  0  0  0  0  0  0
   -1.2150   -3.0870    3.2350 O   0  0  0  0  0  0  0  0  0  0  0  0
   -0.6360   -4.5900    3.9220 P   0  0  0  0  0  0  0  0  0  0  0  0
   -0.9520   -5.0350    5.3550 O   0  0  0  0  0  0  0  0  0  0  0  0
   -1.3490   -2.1410   -0.2500 N   0  0  0  0  0  0  0  0  0  0  0  0
   -0.1950   -2.2800   -1.0350 C   0  0  0  0  0  0  0  0  0  0  0  0
   -0.4200   -3.3400   -1.8450 O   0  0  0  0  0  0  0  0  0  0  0  0
    1.0710   -1.6830   -1.2350 N   0  0  0  0  0  0  0  0  0  0  0  0
    2.1480   -2.7100   -1.1810 C   0  0  0  0  0  0  0  0  0  0  0  0
    3.5370   -2.3190   -1.2020 C   0  0  0  0  0  0  0  0  0  0  0  0
    3.8490   -0.8480   -1.2020 C   0  0  0  0  0  0  0  0  0  0  0  0
    2.7090   -0.1520   -0.6680 N   0  0  0  0  0  0  0  0  0  0  0  0
    2.5610   -0.4730    0.6850 C   0  0  0  0  0  0  0  0  0  0  0  0
    3.6830    0.1310    1.5210 C   0  0  0  0  0  0  0  0  0  0  0  0
    3.4580   -0.2290    2.8890 O   0  0  0  0  0  0  0  0  0  0  0  0
    4.6990    0.4320    3.8590 P   0  0  0  0  0  0  0  0  0  0  0  0
    6.1700    0.2680    3.4630 O   0  0  0  0  0  0  0  0  0  0  0  0
    1.5480   -0.4030   -1.5400 C   0  0  2  0  0  0  0  0  0  0  0  0
    2.1160   -0.4650   -2.9360 C   0  0  0  0  0  0  0  0  0  0  0  0
    2.5040    0.7030   -3.6160 N   0  0  0  0  0  0  0  0  0  0  0  0
    2.2390   -1.5540   -3.4960 O   0  0  0  0  0  0  0  0  0  0  0  0
  1  2  1  0
  2  3  1  0
  3  4  2  0
  5  3  1  1
  5  6  1  0
  5 40  1  0
  6  7  1  0
  7  8  2  0
  7  9  1  0
  9 10  1  1
  9 14  1  0
 10 11  1  0
 11 12  1  0
 12 13  1  0
 14 15  1  0
 15 16  2  0
 15 19  1  0
 16 17  1  0
 17 18  2  0
 18 19  1  0
 19 20  1  0
 20 21  2  0
 20 22  1  0
 22 23  1  1
 22 27  1  0
 23 24  1  0
 24 25  1  0
 25 26  2  0
 27 28  1  0
 28 29  2  0
 28 30  1  0
 30 31  1  0
 30 40  1  0
 31 32  1  0
 32 33  1  0
 33 34  1  0
 34 35  1  0
 34 40  1  0
 35 36  1  0
 36 37  1  0
 37 38  1  0
 38 39  2  0
 40 41  1  6
 41 42  1  0
 41 43  2  0
M  END
