
     RDKit          3D

 43 46  0  0  0  0  0  0  0  0999 V2000
   -2.6380    0.6180    3.2180 C   0  0  0  0  0  0  0  0  0  0  0  0
   -3.4440    0.9410    1.9850 C   0  0  1  0  0  0  0  0  0  0  0  0
   -3.5290    2.4460    1.8820 C   0  0  0  0  0  0  0  0  0  0  0  0
   -4.1570    2.9190    3.0310 O   0  0  0  0  0  0  0  0  0  0  0  0
   -4.3060    4.6460    3.0160 P   0  0  0  0  0  0  0  0  0  0  0  0
   -2.8370    5.4030    2.4750 O   0  0  0  0  0  0  0  0  0  0  0  0
   -5.6760    5.1830    2.1040 O   0  0  0  0  0  0  0  0  0  0  0  0
   -2.8780    0.3410    0.7470 C   0  0  0  0  0  0  0  0  0  0  0  0
   -2.5900    1.0950   -0.2250 O   0  0  0  0  0  0  0  0  0  0  0  0
   -2.6510   -1.0100    0.6030 O   0  0  0  0  0  0  0  0  0  0  0  0
   -2.1270   -1.5440   -0.5710 C   0  0  0  0  0  0  0  0  0  0  0  0
   -0.8150   -1.6000   -0.8570 N   0  0  0  0  0  0  0  0  0  0  0  0
   -0.3760   -2.1290   -2.0100 C   0  0  0  0  0  0  0  0  0  0  0  0
    0.9770   -2.1490   -2.2310 C   0  0  0  0  0  0  0  0  0  0  0  0
    1.8830   -1.6300   -1.2830 N   0  0  0  0  0  0  0  0  0  0  0  0
    1.8210   -0.2230   -0.9280 C   0  0  0  0  0  0  0  0  0  0  0  0
    2.6390   -0.0050    0.3410 C   0  0  0  0  0  0  0  0  0  0  0  0
    4.1040    0.2330    0.0650 C   0  0  1  0  0  0  0  0  0  0  0  0
    4.3150    1.0120   -1.0660 O   0  0  0  0  0  0  0  0  0  0  0  0
    3.8450    2.2410   -1.3860 C   0  0  0  0  0  0  0  0  0  0  0  0
    3.0890    2.8210   -0.6060 O   0  0  0  0  0  0  0  0  0  0  0  0
    4.1860    2.8820   -2.5730 O   0  0  0  0  0  0  0  0  0  0  0  0
    4.7950    0.7120    1.1960 N   0  0  0  0  0  0  0  0  0  0  0  0
    4.5020    1.9650    1.7560 C   0  0  0  0  0  0  0  0  0  0  0  0
    5.3120    1.9640    3.0660 C   0  0  0  0  0  0  0  0  0  0  0  0
    5.5470    0.4970    3.3520 C   0  0  0  0  0  0  0  0  0  0  0  0
    4.6690   -0.2020    2.3390 C   0  0  0  0  0  0  0  0  0  0  0  0
    4.8090   -1.1110   -0.2670 C   0  0  0  0  0  0  0  0  0  0  0  0
    4.0010   -2.2300   -0.0730 O   0  0  0  0  0  0  0  0  0  0  0  0
    2.8060   -2.5730   -0.7520 C   0  0  0  0  0  0  0  0  0  0  0  0
    2.5250   -3.7880   -0.9040 O   0  0  0  0  0  0  0  0  0  0  0  0
    1.4330   -2.6750   -3.3850 N   0  0  0  0  0  0  0  0  0  0  0  0
    0.5550   -3.1740   -4.3060 C   0  0  0  0  0  0  0  0  0  0  0  0
   -0.7710   -3.1590   -4.1000 N   0  0  0  0  0  0  0  0  0  0  0  0
   -1.2650   -2.6440   -2.9620 C   0  0  0  0  0  0  0  0  0  0  0  0
   -2.5760   -2.5880   -2.6770 N   0  0  0  0  0  0  0  0  0  0  0  0
   -3.0180   -2.0590   -1.5240 C   0  0  0  0  0  0  0  0  0  0  0  0
   -4.4030   -1.9930   -1.2100 N   0  0  0  0  0  0  0  0  0  0  0  0
   -5.3440   -2.5140   -2.1750 C   0  0  2  0  0  0  0  0  0  0  0  0
   -5.0490   -3.8640   -2.3530 O   0  0  0  0  0  0  0  0  0  0  0  0
   -5.1860   -1.5800   -3.7780 P   0  0  0  0  0  0  0  0  0  0  0  0
   -4.1420   -2.4660   -4.8460 O   0  0  0  0  0  0  0  0  0  0  0  0
   -6.7530   -1.4300   -4.4960 O   0  0  0  0  0  0  0  0  0  0  0  0
  2  1  1  1
  2  3  1  0
  2  8  1  0
  3  4  1  0
  4  5  1  0
  5  6  1  0
  5  7  1  0
  8  9  2  0
  8 10  1  0
 10 11  1  0
 11 12  2  0
 11 37  1  0
 12 13  1  0
 13 14  2  0
 13 35  1  0
 14 15  1  0
 14 32  1  0
 15 16  1  0
 15 30  1  0
 16 17  1  0
 17 18  1  0
 18 19  1  6
 18 23  1  0
 18 28  1  0
 19 20  1  0
 20 21  2  0
 20 22  1  0
 23 24  1  0
 23 27  1  0
 24 25  1  0
 25 26  1  0
 26 27  1  0
 28 29  1  0
 29 30  1  0
 30 31  2  0
 32 33  2  0
 33 34  1  0
 34 35  2  0
 35 36  1  0
 36 37  2  0
 37 38  1  0
 38 39  1  0
 39 40  1  6
 39 41  1  0
 41 42  1  0
 41 43  1  0
M  END
