
     RDKit          3D

 43 47  0  0  0  0  0  0  0  0999 V2000
   -2.9120    4.4400    0.3150 C   0  0  0  0  0  0  0  0  0  0  0  0
   -3.0950    2.9200    0.4390 C   0  0  1  0  0  0  0  0  0  0  0  0
   -3.3860    2.6470    1.8990 C   0  0  0  0  0  0  0  0  0  0  0  0
   -4.2670    2.5840   -0.4460 C   0  0  0  0  0  0  0  0  0  0  0  0
   -1.8210    2.2920    0.0000 C   0  0  0  0  0  0  0  0  0  0  0  0
   -0.9210    3.0620   -0.4020 O   0  0  0  0  0  0  0  0  0  0  0  0
   -1.5920    0.9040    0.0180 N   0  0  0  0  0  0  0  0  0  0  0  0
   -2.5860   -0.0500    0.5330 C   0  0  0  0  0  0  0  0  0  0  0  0
   -2.2280   -1.4670    0.3370 C   0  0  2  0  0  0  0  0  0  0  0  0
   -2.5260   -2.2490    1.6420 C   0  0  0  0  0  0  0  0  0  0  0  0
   -2.4570   -3.5520    1.0950 O   0  0  0  0  0  0  0  0  0  0  0  0
   -3.1300   -3.4560   -0.1210 C   0  0  2  0  0  0  0  0  0  0  0  0
   -4.4450   -3.9040    0.1670 O   0  0  0  0  0  0  0  0  0  0  0  0
   -2.5800   -4.3810   -1.0900 N   0  0  0  0  0  0  0  0  0  0  0  0
   -1.6820   -5.4440   -0.7970 C   0  0  0  0  0  0  0  0  0  0  0  0
   -2.0240   -6.6260   -1.1920 O   0  0  0  0  0  0  0  0  0  0  0  0
   -0.4530   -5.2640   -0.1050 N   0  0  0  0  0  0  0  0  0  0  0  0
    0.5880   -4.3460   -0.4180 C   0  0  0  0  0  0  0  0  0  0  0  0
    1.0450   -3.4640    0.7080 C   0  0  0  0  0  0  0  0  0  0  0  0
    1.8410   -2.4910    0.2160 O   0  0  0  0  0  0  0  0  0  0  0  0
    1.3760   -1.2660   -0.0570 C   0  0  1  0  0  0  0  0  0  0  0  0
    2.2770   -0.2570    0.6790 C   0  0  0  0  0  0  0  0  0  0  0  0
    3.2620    0.0920   -0.3900 C   0  0  1  0  0  0  0  0  0  0  0  0
    4.6050    0.2320    0.0630 N   0  0  0  0  0  0  0  0  0  0  0  0
    5.3430    1.4280   -0.0510 C   0  0  0  0  0  0  0  0  0  0  0  0
    4.7650    2.4090   -0.5850 O   0  0  0  0  0  0  0  0  0  0  0  0
    6.6420    1.6100    0.3740 O   0  0  0  0  0  0  0  0  0  0  0  0
    7.4780    3.1560    0.1820 P   0  0  0  0  0  0  0  0  0  0  0  0
    8.2570    3.5100    1.6930 O   0  0  0  0  0  0  0  0  0  0  0  0
    5.8960    4.6850   -0.1220 P   0  0  0  0  0  0  0  0  0  0  0  0
    6.2790    6.1950   -0.1290 O   0  0  0  0  0  0  0  0  0  0  0  0
    3.0180   -0.9330   -1.4290 C   0  0  0  0  0  0  0  0  0  0  0  0
    1.6060   -0.9930   -1.4200 O   0  0  0  0  0  0  0  0  0  0  0  0
   -0.0200   -0.9300    0.3120 C   0  0  2  0  0  0  0  0  0  0  0  0
   -0.9820   -1.8110   -0.0690 O   0  0  0  0  0  0  0  0  0  0  0  0
   -0.4110    0.3290   -0.4600 C   0  0  0  0  0  0  0  0  0  0  0  0
    0.2380    0.7350   -1.4230 N   0  0  0  0  0  0  0  0  0  0  0  0
    0.2290    1.7210   -2.3760 C   0  0  0  0  0  0  0  0  0  0  0  0
    1.2440    2.6100   -2.5900 N   0  0  0  0  0  0  0  0  0  0  0  0
    0.9240    3.4330   -3.5840 C   0  0  0  0  0  0  0  0  0  0  0  0
   -0.2950    3.0480   -3.9850 N   0  0  0  0  0  0  0  0  0  0  0  0
   -0.6920    2.0480   -3.2740 O   0  0  0  0  0  0  0  0  0  0  0  0
   -3.1280   -2.1430   -0.5100 O   0  0  0  0  0  0  0  0  0  0  0  0
  2  1  1  1
  2  3  1  0
  2  4  1  0
  2  5  1  0
  5  6  2  0
  5  7  1  0
  7  8  1  0
  7 36  1  0
  9  8  1  1
  9 10  1  0
  9 35  1  0
  9 43  1  0
 10 11  1  0
 11 12  1  0
 12 13  1  1
 12 14  1  0
 12 43  1  0
 14 15  1  0
 15 16  2  0
 15 17  1  0
 17 18  1  0
 18 19  1  0
 19 20  1  0
 20 21  1  0
 21 22  1  1
 21 33  1  0
 21 34  1  0
 22 23  1  0
 23 24  1  1
 23 32  1  0
 24 25  1  0
 25 26  2  0
 25 27  1  0
 27 28  1  0
 28 29  1  0
 28 30  1  0
 30 31  2  0
 32 33  1  0
 34 35  1  0
 34 36  1  6
 36 37  2  3
 37 38  1  0
 38 39  2  0
 38 42  1  0
 39 40  1  0
 40 41  2  0
 41 42  1  0
M  END
