
     RDKit          3D

 43 46  0  0  0  0  0  0  0  0999 V2000
    3.2340    2.6620    1.0910 N   0  0  0  0  0  0  0  0  0  0  0  0
    3.8230    1.5690    0.3060 C   0  0  1  0  0  0  0  0  0  0  0  0
    5.1500    1.4260    0.6250 O   0  0  0  0  0  0  0  0  0  0  0  0
    6.0410    1.6340   -0.4000 C   0  0  0  0  0  0  0  0  0  0  0  0
    5.8430    0.5180   -1.8450 P   0  0  0  0  0  0  0  0  0  0  0  0
    5.7780    1.3780   -3.3550 O   0  0  0  0  0  0  0  0  0  0  0  0
    4.4510   -0.4920   -1.7450 O   0  0  0  0  0  0  0  0  0  0  0  0
    3.1020    0.3020    0.6840 C   0  0  0  0  0  0  0  0  0  0  0  0
    3.7680   -0.5960    1.2310 O   0  0  0  0  0  0  0  0  0  0  0  0
    1.6620    0.2230    0.3780 C   0  0  0  0  0  0  0  0  0  0  0  0
    0.9750   -0.8330    0.6880 C   0  0  0  0  0  0  0  0  0  0  0  0
    1.5430   -2.0160    1.3600 C   0  0  0  0  0  0  0  0  0  0  0  0
    2.1910   -1.9600    2.5210 N   0  0  0  0  0  0  0  0  0  0  0  0
    2.7390   -2.9970    3.1660 C   0  0  0  0  0  0  0  0  0  0  0  0
    3.4060   -2.8960    4.3760 O   0  0  0  0  0  0  0  0  0  0  0  0
    2.6220   -4.2480    2.5700 C   0  0  0  0  0  0  0  0  0  0  0  0
    1.9600   -4.3320    1.3760 C   0  0  0  0  0  0  0  0  0  0  0  0
    1.8120   -5.5510    0.7370 O   0  0  0  0  0  0  0  0  0  0  0  0
    1.4380   -3.2330    0.7960 N   0  0  0  0  0  0  0  0  0  0  0  0
   -0.4020   -0.8670    0.3720 O   0  0  0  0  0  0  0  0  0  0  0  0
   -0.9650    0.2290   -0.2570 C   0  0  0  0  0  0  0  0  0  0  0  0
   -2.2370    0.2560   -0.5740 C   0  0  0  0  0  0  0  0  0  0  0  0
   -3.1790   -0.8230   -0.3120 C   0  0  1  0  0  0  0  0  0  0  0  0
   -2.6310   -1.9910    0.2090 N   0  0  0  0  0  0  0  0  0  0  0  0
   -2.6520   -3.2690   -0.4680 C   0  0  0  0  0  0  0  0  0  0  0  0
   -3.2200   -3.2260   -1.6070 O   0  0  0  0  0  0  0  0  0  0  0  0
   -2.0810   -4.4890    0.1010 C   0  0  0  0  0  0  0  0  0  0  0  0
   -2.2940   -5.5320   -0.8090 O   0  0  0  0  0  0  0  0  0  0  0  0
   -1.8190   -6.6640   -0.3920 O   0  0  0  0  0  0  0  0  0  0  0  0
   -4.3330   -0.2490    0.4710 C   0  0  0  0  0  0  0  0  0  0  0  0
   -5.0250    0.8330   -0.3060 C   0  0  0  0  0  0  0  0  0  0  0  0
   -4.2460    1.2870   -1.5180 C   0  0  0  0  0  0  0  0  0  0  0  0
   -2.8370    1.4020   -1.2350 N   0  0  0  0  0  0  0  0  0  0  0  0
   -2.0340    2.5000   -1.5370 C   0  0  0  0  0  0  0  0  0  0  0  0
   -2.5980    3.6040   -2.1710 O   0  0  0  0  0  0  0  0  0  0  0  0
   -1.9710    4.8570   -1.9920 C   0  0  0  0  0  0  0  0  0  0  0  0
   -1.9820    5.1790   -0.5180 C   0  0  0  0  0  0  0  0  0  0  0  0
   -3.3400    5.2120   -0.1490 O   0  0  0  0  0  0  0  0  0  0  0  0
   -3.5420    5.5720    1.5280 P   0  0  0  0  0  0  0  0  0  0  0  0
   -4.9270    5.2170    2.1740 O   0  0  0  0  0  0  0  0  0  0  0  0
   -0.7800    2.4930   -1.2330 N   0  0  0  0  0  0  0  0  0  0  0  0
   -0.1500    1.4040   -0.5900 C   0  0  0  0  0  0  0  0  0  0  0  0
    1.0750    1.3670   -0.2790 N   0  0  0  0  0  0  0  0  0  0  0  0
  2  1  1  1
  2  3  1  0
  2  8  1  0
  3  4  1  0
  4  5  1  0
  5  6  1  0
  5  7  1  0
  8  9  2  0
  8 10  1  0
 10 11  2  0
 10 43  1  0
 11 12  1  0
 11 20  1  0
 12 13  2  0
 12 19  1  0
 13 14  1  0
 14 15  1  0
 14 16  2  0
 16 17  1  0
 17 18  1  0
 17 19  2  0
 20 21  1  0
 21 22  2  0
 21 42  1  0
 22 23  1  0
 22 33  1  0
 23 24  1  1
 23 30  1  0
 24 25  1  0
 25 26  2  0
 25 27  1  0
 27 28  1  0
 28 29  1  0
 30 31  1  0
 31 32  1  0
 32 33  1  0
 33 34  1  0
 34 35  1  0
 34 41  2  0
 35 36  1  0
 36 37  1  0
 37 38  1  0
 38 39  1  0
 39 40  2  0
 41 42  1  0
 42 43  2  0
M  END
