
     RDKit          3D

 43 47  0  0  0  0  0  0  0  0999 V2000
    1.7790   -2.5970    2.4220 N   0  0  0  0  0  0  0  0  0  0  0  0
    1.6630   -1.3360    2.6480 C   0  0  0  0  0  0  0  0  0  0  0  0
    2.1900   -0.8260    3.8620 N   0  0  0  0  0  0  0  0  0  0  0  0
    3.2360   -1.7920    4.9550 P   0  0  0  0  0  0  0  0  0  0  0  0
    3.4410   -3.2920    4.6230 O   0  0  0  0  0  0  0  0  0  0  0  0
    1.0170   -0.5350    1.6780 N   0  0  0  0  0  0  0  0  0  0  0  0
   -0.3350   -0.8790    1.3880 C   0  0  0  0  0  0  0  0  0  0  0  0
   -0.6710   -1.9780    1.9420 O   0  0  0  0  0  0  0  0  0  0  0  0
   -1.4160   -0.2740    0.6110 C   0  0  2  0  0  0  0  0  0  0  0  0
   -2.7450   -0.6580    1.2730 C   0  0  0  0  0  0  0  0  0  0  0  0
   -3.2360   -1.5950    0.3590 O   0  0  0  0  0  0  0  0  0  0  0  0
   -2.8980   -0.9750   -0.8540 C   0  0  2  0  0  0  0  0  0  0  0  0
   -3.2270   -1.8640   -2.0200 C   0  0  0  0  0  0  0  0  0  0  0  0
   -4.5950   -2.1260   -2.0010 O   0  0  0  0  0  0  0  0  0  0  0  0
   -5.0020   -3.1410   -3.3260 P   0  0  0  0  0  0  0  0  0  0  0  0
   -6.5800   -3.8170   -3.1910 O   0  0  0  0  0  0  0  0  0  0  0  0
   -3.7910   -4.3170   -3.6740 O   0  0  0  0  0  0  0  0  0  0  0  0
   -1.5120   -0.8340   -0.6820 O   0  0  0  0  0  0  0  0  0  0  0  0
   -1.3950    1.2190    0.5300 C   0  0  0  0  0  0  0  0  0  0  0  0
   -0.1300    1.7410    0.0520 N   0  0  0  0  0  0  0  0  0  0  0  0
   -0.0630    3.1310   -0.1840 C   0  0  0  0  0  0  0  0  0  0  0  0
    1.0050    3.6320   -0.6010 O   0  0  0  0  0  0  0  0  0  0  0  0
   -1.1980    4.0150    0.0420 C   0  0  0  0  0  0  0  0  0  0  0  0
   -1.2290    5.3730   -0.1600 C   0  0  0  0  0  0  0  0  0  0  0  0
   -2.4860    5.8410    0.1690 C   0  0  0  0  0  0  0  0  0  0  0  0
   -3.3380    6.9080    0.2750 C   0  0  0  0  0  0  0  0  0  0  0  0
   -4.5160    6.4540    0.7230 N   0  0  0  0  0  0  0  0  0  0  0  0
   -4.4210    5.1550    0.8950 N   0  0  0  0  0  0  0  0  0  0  0  0
   -3.1860    4.7240    0.5670 C   0  0  0  0  0  0  0  0  0  0  0  0
   -2.4030    3.6860    0.4780 O   0  0  0  0  0  0  0  0  0  0  0  0
    1.0840    1.0170   -0.2130 C   0  0  0  0  0  0  0  0  0  0  0  0
    1.7460    0.5440    1.0630 C   0  0  2  0  0  0  0  0  0  0  0  0
    3.1780    0.2640    0.7990 C   0  0  0  0  0  0  0  0  0  0  0  0
    3.3850   -0.8390   -0.0670 O   0  0  0  0  0  0  0  0  0  0  0  0
    4.6890   -1.2170   -0.4030 C   0  0  0  0  0  0  0  0  0  0  0  0
    5.6140   -0.5350    0.0990 O   0  0  0  0  0  0  0  0  0  0  0  0
    4.9800   -2.3290   -1.2790 C   0  0  0  0  0  0  0  0  0  0  0  0
    4.0180   -3.1160   -1.8620 C   0  0  0  0  0  0  0  0  0  0  0  0
    4.4070   -4.1250   -2.6610 N   0  0  0  0  0  0  0  0  0  0  0  0
    5.6680   -4.3900   -2.9060 O   0  0  0  0  0  0  0  0  0  0  0  0
    6.6390   -3.6900   -2.3910 C   0  0  0  0  0  0  0  0  0  0  0  0
    7.8210   -4.0050   -2.6730 O   0  0  0  0  0  0  0  0  0  0  0  0
    6.2940   -2.6360   -1.5590 C   0  0  0  0  0  0  0  0  0  0  0  0
  1  2  2  0
  2  3  1  0
  2  6  1  0
  3  4  1  0
  4  5  2  0
  6  7  1  0
  6 32  1  0
  7  8  2  0
  7  9  1  0
  9 10  1  1
  9 18  1  0
  9 19  1  0
 10 11  1  0
 11 12  1  0
 12 13  1  6
 12 18  1  0
 13 14  1  0
 14 15  1  0
 15 16  1  0
 15 17  1  0
 19 20  1  0
 20 21  1  0
 20 31  1  0
 21 22  2  0
 21 23  1  0
 23 24  2  0
 23 30  1  0
 24 25  1  0
 25 26  2  0
 25 29  1  0
 26 27  1  0
 27 28  1  0
 28 29  2  0
 29 30  1  0
 31 32  1  0
 32 33  1  6
 33 34  1  0
 34 35  1  0
 35 36  2  0
 35 37  1  0
 37 38  1  0
 37 43  2  0
 38 39  2  0
 39 40  1  0
 40 41  1  0
 41 42  2  0
 41 43  1  0
M  END
