
     RDKit          3D

 43 44  0  0  0  0  0  0  0  0999 V2000
    0.7310   -6.4610    1.0290 C   0  0  0  0  0  0  0  0  0  0  0  0
    1.2900   -5.5410   -0.0380 C   0  0  0  0  0  0  0  0  0  0  0  0
    0.9820   -4.2140    0.3470 O   0  0  0  0  0  0  0  0  0  0  0  0
    1.3220   -3.1020   -0.3600 C   0  0  0  0  0  0  0  0  0  0  0  0
    1.9510   -3.2020   -1.4330 O   0  0  0  0  0  0  0  0  0  0  0  0
    0.9590   -1.7050    0.1120 C   0  0  1  0  0  0  0  0  0  0  0  0
    1.4450   -0.7220   -0.8220 N   0  0  0  0  0  0  0  0  0  0  0  0
    2.7400   -0.6240   -1.3780 C   0  0  0  0  0  0  0  0  0  0  0  0
    2.7750   -0.5180   -2.6370 O   0  0  0  0  0  0  0  0  0  0  0  0
    4.0310   -0.6400   -0.5740 C   0  0  0  0  0  0  0  0  0  0  0  0
    4.0960   -0.0030    0.5610 C   0  0  0  0  0  0  0  0  0  0  0  0
    2.8820    0.7880    1.0820 C   0  0  0  0  0  0  0  0  0  0  0  0
    2.4260    1.7880    0.3300 C   0  0  0  0  0  0  0  0  0  0  0  0
    3.1150    2.0960   -0.9700 C   0  0  0  0  0  0  0  0  0  0  0  0
    4.3090    2.3820   -1.3410 C   0  0  0  0  0  0  0  0  0  0  0  0
    5.6460    2.5950   -0.8750 C   0  0  0  0  0  0  0  0  0  0  0  0
    5.9400    4.0750   -1.1230 O   0  0  0  0  0  0  0  0  0  0  0  0
    5.9530    4.7560    0.1370 C   0  0  0  0  0  0  0  0  0  0  0  0
    6.6470    1.9760   -0.3400 C   0  0  0  0  0  0  0  0  0  0  0  0
    7.1300    0.7340    0.1430 C   0  0  0  0  0  0  0  0  0  0  0  0
    7.0920   -0.5420   -0.1080 C   0  0  0  0  0  0  0  0  0  0  0  0
    7.8830   -1.4890    0.8390 C   0  0  0  0  0  0  0  0  0  0  0  0
    6.4090   -1.3050   -1.1530 C   0  0  0  0  0  0  0  0  0  0  0  0
    5.0720   -1.3370   -1.3420 C   0  0  0  0  0  0  0  0  0  0  0  0
    1.2490    2.6400    0.5570 C   0  0  0  0  0  0  0  0  0  0  0  0
    1.2130    3.8210    0.0100 O   0  0  0  0  0  0  0  0  0  0  0  0
    0.0620    2.4030    1.3070 N   0  0  0  0  0  0  0  0  0  0  0  0
   -0.4480    1.0810    1.6030 C   0  0  0  0  0  0  0  0  0  0  0  0
   -1.5820    0.6510    0.6960 C   0  0  2  0  0  0  0  0  0  0  0  0
   -2.8640    0.8350    1.4530 C   0  0  0  0  0  0  0  0  0  0  0  0
   -4.0700    0.4680    0.7860 N   0  0  0  0  0  0  0  0  0  0  0  0
   -4.2600   -0.9580    0.6740 C   0  0  0  0  0  0  0  0  0  0  0  0
   -5.1850    1.0290    1.5070 C   0  0  0  0  0  0  0  0  0  0  0  0
   -6.8020    0.7760    0.6610 P   0  0  0  0  0  0  0  0  0  0  0  0
   -6.9670    1.9480   -0.6110 O   0  0  0  0  0  0  0  0  0  0  0  0
   -7.0050    3.2130   -0.0570 C   0  0  0  0  0  0  0  0  0  0  0  0
   -7.1490    4.2050   -1.2050 C   0  0  0  0  0  0  0  0  0  0  0  0
   -6.9870   -0.8080    0.0570 O   0  0  0  0  0  0  0  0  0  0  0  0
   -8.3210   -1.0640   -0.2640 C   0  0  0  0  0  0  0  0  0  0  0  0
   -8.5490   -2.4400   -0.7960 C   0  0  0  0  0  0  0  0  0  0  0  0
   -1.4160   -0.6330    0.0890 N   0  0  0  0  0  0  0  0  0  0  0  0
   -0.5100   -1.6540    0.3270 C   0  0  0  0  0  0  0  0  0  0  0  0
   -0.9790   -2.7540    0.8100 O   0  0  0  0  0  0  0  0  0  0  0  0
  1  2  1  0
  2  3  1  0
  3  4  1  0
  4  5  2  0
  6  4  1  6
  6  7  1  0
  6 42  1  0
  7  8  1  0
  8  9  2  0
  8 10  1  0
 10 11  2  0
 10 24  1  0
 11 12  1  0
 12 13  2  0
 13 14  1  0
 13 25  1  0
 14 15  2  0
 15 16  1  0
 16 17  1  0
 16 19  2  0
 17 18  1  0
 19 20  1  0
 20 21  2  0
 21 22  1  0
 21 23  1  0
 23 24  2  0
 25 26  2  0
 25 27  1  0
 27 28  1  0
 28 29  1  0
 29 30  1  1
 29 41  1  0
 30 31  1  0
 31 32  1  0
 31 33  1  0
 33 34  1  0
 34 35  1  0
 34 38  1  0
 35 36  1  0
 36 37  1  0
 38 39  1  0
 39 40  1  0
 41 42  1  0
 42 43  2  0
M  END
