
     RDKit          3D

 22 22  0  0  0  0  0  0  0  0999 V2000
    0.7000    2.0360   -0.4270 C   0  0  0  0  0  0  0  0  0  0  0  0
    0.7780    0.5490   -0.3590 C   0  0  1  0  0  0  0  0  0  0  0  0
   -0.4090   -0.2350   -0.8370 C   0  0  2  0  0  0  0  0  0  0  0  0
   -0.7580    0.1990   -2.0990 O   0  0  0  0  0  0  0  0  0  0  0  0
   -1.5360   -0.3250    0.1240 C   0  0  0  0  0  0  0  0  0  0  0  0
   -2.4700    0.7470    0.2800 C   0  0  0  0  0  0  0  0  0  0  0  0
   -2.5390    1.8380   -0.4640 C   0  0  0  0  0  0  0  0  0  0  0  0
   -3.5350    2.8560   -0.1970 N   0  0  0  0  0  0  0  0  0  0  0  0
   -4.3740    3.1170   -1.0620 O   0  0  0  0  0  0  0  0  0  0  0  0
   -3.5120    3.4940    1.0050 O   0  0  0  0  0  0  0  0  0  0  0  0
   -1.5610   -1.3850    0.8750 C   0  0  0  0  0  0  0  0  0  0  0  0
   -0.4970   -2.3190    0.6750 O   0  0  0  0  0  0  0  0  0  0  0  0
   -2.5000   -1.7500    1.8690 C   0  0  0  0  0  0  0  0  0  0  0  0
   -2.3810   -2.8460    2.5360 O   0  0  0  0  0  0  0  0  0  0  0  0
   -3.5920   -1.0010    2.2090 O   0  0  0  0  0  0  0  0  0  0  0  0
    1.9130    0.1560   -1.3240 C   0  0  0  0  0  0  0  0  0  0  0  0
    3.1460    0.4680   -0.7800 O   0  0  0  0  0  0  0  0  0  0  0  0
    3.8170   -0.7380   -0.5480 C   0  0  0  0  0  0  0  0  0  0  0  0
    3.0160   -1.5050    0.4680 C   0  0  0  0  0  0  0  0  0  0  0  0
    2.1940   -0.6230    1.3350 C   0  0  0  0  0  0  0  0  0  0  0  0
    2.6080   -0.5680    2.5230 O   0  0  0  0  0  0  0  0  0  0  0  0
    1.0880    0.0890    0.9510 O   0  0  0  0  0  0  0  0  0  0  0  0
  2  1  1  1
  2  3  1  0
  2 16  1  0
  2 22  1  0
  3  4  1  6
  3  5  1  0
  5  6  1  0
  5 11  2  3
  6  7  2  3
  7  8  1  0
  8  9  2  0
  8 10  1  0
 11 12  1  0
 11 13  1  0
 13 14  2  0
 13 15  1  0
 16 17  1  0
 17 18  1  0
 18 19  1  0
 19 20  1  0
 20 21  2  0
 20 22  1  0
M  CHG  2   8   1  10  -1
M  END
