
     RDKit          3D

 21 21  0  0  0  0  0  0  0  0999 V2000
   -1.7080    1.8350   -0.5530 C   0  0  0  0  0  0  0  0  0  0  0  0
   -2.2160    0.4130   -0.4370 C   0  0  1  0  0  0  0  0  0  0  0  0
   -1.1920   -0.5180   -1.0320 C   0  0  0  0  0  0  0  0  0  0  0  0
   -1.5490   -1.2140   -2.0170 O   0  0  0  0  0  0  0  0  0  0  0  0
    0.0920   -0.6030   -0.5140 O   0  0  0  0  0  0  0  0  0  0  0  0
    0.9820   -1.4980   -1.1320 C   0  0  0  0  0  0  0  0  0  0  0  0
    2.3180   -1.5040   -0.4960 C   0  0  0  0  0  0  0  0  0  0  0  0
    3.1980   -2.2700   -0.9670 O   0  0  0  0  0  0  0  0  0  0  0  0
    2.6860   -0.7360    0.5770 O   0  0  0  0  0  0  0  0  0  0  0  0
    3.9490   -0.7380    1.1830 C   0  0  0  0  0  0  0  0  0  0  0  0
    5.0630   -0.3450    0.2430 C   0  0  0  0  0  0  0  0  0  0  0  0
    4.8850    0.9850   -0.2980 N   0  0  1  0  0  0  0  0  0  0  0  0
    6.0810    1.4770   -0.7210 O   0  0  0  0  0  0  0  0  0  0  0  0
    4.0980    0.9340   -1.4150 O   0  0  0  0  0  0  0  0  0  0  0  0
    4.3860    1.8240    0.6120 O   0  0  0  0  0  0  0  0  0  0  0  0
   -2.3670    0.1310    1.0540 C   0  0  0  0  0  0  0  0  0  0  0  0
   -3.7800    0.5760    1.4190 C   0  0  0  0  0  0  0  0  0  0  0  0
   -4.7270   -0.4190    0.7720 C   0  0  1  0  0  0  0  0  0  0  0  0
   -6.0410    0.0420    0.8070 O   0  0  0  0  0  0  0  0  0  0  0  0
   -4.2510   -0.6560   -0.6380 C   0  0  0  0  0  0  0  0  0  0  0  0
   -3.4120    0.3350   -1.1030 O   0  0  0  0  0  0  0  0  0  0  0  0
  2  1  1  1
  2  3  1  0
  2 16  1  0
  2 21  1  0
  3  4  2  0
  3  5  1  0
  5  6  1  0
  6  7  1  0
  7  8  2  0
  7  9  1  0
  9 10  1  0
 10 11  1  0
 11 12  1  0
 12 13  1  6
 12 14  1  0
 12 15  1  0
 16 17  1  0
 17 18  1  0
 18 19  1  6
 18 20  1  0
 20 21  1  0
M  CHG  2  12   1  13  -1
M  END
