
     RDKit          3D

 21 22  0  0  0  0  0  0  0  0999 V2000
    1.6660   -1.6930    0.9380 C   0  0  0  0  0  0  0  0  0  0  0  0
    1.6800   -0.2280    0.5900 C   0  0  2  0  0  0  0  0  0  0  0  0
    0.2670    0.2810    0.7450 C   0  0  0  0  0  0  0  0  0  0  0  0
    0.0670    1.1930    1.5350 O   0  0  0  0  0  0  0  0  0  0  0  0
   -0.7890   -0.2720    0.0080 N   0  0  0  0  0  0  0  0  0  0  0  0
   -2.1570    0.0330   -0.0140 C   0  0  0  0  0  0  0  0  0  0  0  0
   -2.7630    0.9460    0.6890 C   0  0  0  0  0  0  0  0  0  0  0  0
   -2.0230    1.7450    1.5820 O   0  0  0  0  0  0  0  0  0  0  0  0
   -4.2480    1.2390    0.6320 C   0  0  0  0  0  0  0  0  0  0  0  0
   -4.9100    0.4180   -0.2650 O   0  0  0  0  0  0  0  0  0  0  0  0
   -4.3100   -0.5540   -1.0220 C   0  0  0  0  0  0  0  0  0  0  0  0
   -5.1150   -1.3120   -1.8930 O   0  0  0  0  0  0  0  0  0  0  0  0
   -3.0280   -0.7600   -0.9300 C   0  0  0  0  0  0  0  0  0  0  0  0
   -2.4460   -1.7450   -1.7040 O   0  0  0  0  0  0  0  0  0  0  0  0
    2.1100   -0.0470   -0.8610 C   0  0  0  0  0  0  0  0  0  0  0  0
    3.4770   -0.5820   -1.0660 C   0  0  0  0  0  0  0  0  0  0  0  0
    4.5060    0.2000   -0.6590 O   0  0  0  0  0  0  0  0  0  0  0  0
    4.1880    1.4660   -0.2460 C   0  0  0  0  0  0  0  0  0  0  0  0
    3.4620    1.4720    1.0750 C   0  0  0  0  0  0  0  0  0  0  0  0
    3.7000    2.3990    1.8740 O   0  0  0  0  0  0  0  0  0  0  0  0
    2.5440    0.4950    1.4400 O   0  0  0  0  0  0  0  0  0  0  0  0
  2  1  1  1
  2  3  1  0
  2 15  1  0
  2 21  1  0
  3  4  2  0
  3  5  1  0
  5  6  1  0
  6  7  2  0
  6 13  1  0
  7  8  1  0
  7  9  1  0
  9 10  1  0
 10 11  1  0
 11 12  1  0
 11 13  2  0
 13 14  1  0
 15 16  1  0
 16 17  1  0
 17 18  1  0
 18 19  1  0
 19 20  2  0
 19 21  1  0
M  END
