
     RDKit          3D

 21 21  0  0  0  0  0  0  0  0999 V2000
   -0.1040    2.6100   -1.7760 C   0  0  0  0  0  0  0  0  0  0  0  0
   -1.3530    3.0180   -1.3930 O   0  0  0  0  0  0  0  0  0  0  0  0
   -1.6720    2.8930   -0.0750 C   0  0  0  0  0  0  0  0  0  0  0  0
   -1.6430    1.5310    0.5140 C   0  0  2  0  0  0  0  0  0  0  0  0
   -0.3760    0.9510    0.4400 O   0  0  0  0  0  0  0  0  0  0  0  0
    0.3740    0.6150    1.5650 C   0  0  0  0  0  0  0  0  0  0  0  0
   -0.1610    0.8670    2.6800 O   0  0  0  0  0  0  0  0  0  0  0  0
    1.6900    0.0120    1.4540 C   0  0  0  0  0  0  0  0  0  0  0  0
    2.4370   -0.3240    2.4890 C   0  0  0  0  0  0  0  0  0  0  0  0
    3.7000   -0.9050    1.9960 C   0  0  1  0  0  0  0  0  0  0  0  0
    3.8750   -2.2220    2.4070 O   0  0  0  0  0  0  0  0  0  0  0  0
    3.5710   -0.8550    0.5250 C   0  0  0  0  0  0  0  0  0  0  0  0
    4.4750   -1.2750   -0.3410 C   0  0  0  0  0  0  0  0  0  0  0  0
    4.2620   -1.1860   -1.7430 N   0  0  0  0  0  0  0  0  0  0  0  0
    2.3250   -0.2870    0.2690 O   0  0  0  0  0  0  0  0  0  0  0  0
   -2.7030    0.6350   -0.0180 C   0  0  0  0  0  0  0  0  0  0  0  0
   -3.9040    0.9220   -0.0610 O   0  0  0  0  0  0  0  0  0  0  0  0
   -2.3040   -0.6010   -0.4940 O   0  0  0  0  0  0  0  0  0  0  0  0
   -3.1130   -1.5910   -1.0300 C   0  0  0  0  0  0  0  0  0  0  0  0
   -4.1170   -2.0430    0.0030 C   0  0  0  0  0  0  0  0  0  0  0  0
   -4.9390   -3.0430   -0.5250 O   0  0  0  0  0  0  0  0  0  0  0  0
  1  2  1  0
  2  3  1  0
  4  3  1  6
  4  5  1  0
  4 16  1  0
  5  6  1  0
  6  7  2  0
  6  8  1  0
  8  9  2  0
  8 15  1  0
  9 10  1  0
 10 11  1  1
 10 12  1  0
 12 13  2  3
 12 15  1  0
 13 14  1  0
 16 17  2  0
 16 18  1  0
 18 19  1  0
 19 20  1  0
 20 21  1  0
M  CHG  2  11  -1  14   1
M  END
