
     RDKit          3D

 10 10  0  0  0  0  0  0  0  0999 V2000
   -1.8560   -0.7100    0.2400 N   0  0  0  0  0  0  0  0  0  0  0  0
   -0.5650   -0.8210   -0.1250 O   0  0  0  0  0  0  0  0  0  0  0  0
   -0.0420    0.4840   -0.2420 C   0  0  1  0  0  0  0  0  0  0  0  0
   -0.7810    1.1550   -1.2090 O   0  0  0  0  0  0  0  0  0  0  0  0
   -0.1560    1.0840    1.0290 N   0  0  0  0  0  0  0  0  0  0  0  0
    0.4990    0.7400    2.0170 N   0  0  0  0  0  0  0  0  0  0  0  0
    1.6520   -0.5960    1.8030 S   0  0  0  0  0  0  0  0  0  0  0  0
    2.2220   -0.3430    0.1080 C   0  0  0  0  0  0  0  0  0  0  0  0
    3.5850   -0.9560   -0.4620 S   0  0  0  0  0  0  0  0  0  0  0  0
    1.3410    0.4610   -0.6670 N   0  0  0  0  0  0  0  0  0  0  0  0
  1  2  1  0
  2  3  1  0
  3  4  1  6
  3  5  1  0
  3 10  1  0
  5  6  2  0
  6  7  1  0
  7  8  1  0
  8  9  2  0
  8 10  1  0
M  CHG  1   1   1
M  END
