
     RDKit          3D

 21 23  0  0  0  0  0  0  0  0999 V2000
    3.9580    0.4980    4.0000 C   0  0  0  0  0  0  0  0  0  0  0  0
    3.4090    0.2550    2.7450 O   0  0  0  0  0  0  0  0  0  0  0  0
    2.9410    0.0470    1.6740 C   0  0  0  0  0  0  0  0  0  0  0  0
    3.7010   -0.4400    0.5580 C   0  0  0  0  0  0  0  0  0  0  0  0
    3.1510   -0.6680   -0.6570 C   0  0  0  0  0  0  0  0  0  0  0  0
    4.0060   -1.1680   -1.7850 C   0  0  0  0  0  0  0  0  0  0  0  0
    1.8140   -0.4480   -0.9010 C   0  0  0  0  0  0  0  0  0  0  0  0
    1.0220    0.0230    0.1380 C   0  0  0  0  0  0  0  0  0  0  0  0
   -0.3360    0.2570   -0.1110 C   0  0  0  0  0  0  0  0  0  0  0  0
   -0.9170    0.0390   -1.4570 C   0  0  0  0  0  0  0  0  0  0  0  0
   -2.3400    0.3190   -1.3840 N   0  0  0  0  0  0  0  0  0  0  0  0
   -2.9600    0.3170   -2.7270 C   0  0  0  0  0  0  0  0  0  0  0  0
   -4.4290    0.5460   -2.5140 C   0  0  0  0  0  0  0  0  0  0  0  0
   -4.8370    0.6400   -1.2070 O   0  0  0  0  0  0  0  0  0  0  0  0
   -4.4460   -0.4620   -0.4350 C   0  0  0  0  0  0  0  0  0  0  0  0
   -3.0060   -0.8240   -0.7330 C   0  0  0  0  0  0  0  0  0  0  0  0
   -1.1050    0.7400    0.9470 C   0  0  0  0  0  0  0  0  0  0  0  0
   -0.5650    0.9770    2.1820 C   0  0  0  0  0  0  0  0  0  0  0  0
    0.7560    0.7400    2.3930 C   0  0  0  0  0  0  0  0  0  0  0  0
    1.2990    0.9750    3.6230 O   0  0  0  0  0  0  0  0  0  0  0  0
    1.5560    0.2560    1.3520 C   0  0  0  0  0  0  0  0  0  0  0  0
  1  2  1  0
  2  3  1  0
  3  4  2  0
  3 21  1  0
  4  5  1  0
  5  6  1  0
  5  7  2  0
  7  8  1  0
  8  9  2  0
  8 21  1  0
  9 10  1  0
  9 17  1  0
 10 11  1  0
 11 12  1  0
 11 16  1  0
 12 13  1  0
 13 14  1  0
 14 15  1  0
 15 16  1  0
 17 18  2  0
 18 19  1  0
 19 20  1  0
 19 21  2  0
M  END
