
     RDKit          3D

 21 23  0  0  0  0  0  0  0  0999 V2000
    6.0220   -0.6800    0.1630 C   0  0  0  0  0  0  0  0  0  0  0  0
    4.5410   -0.4880    0.5150 C   0  0  0  0  0  0  0  0  0  0  0  0
    4.1630    0.8730    0.0170 C   0  0  0  0  0  0  0  0  0  0  0  0
    2.8150    1.2150    0.2640 O   0  0  0  0  0  0  0  0  0  0  0  0
    1.7320    0.4850   -0.2370 C   0  0  0  0  0  0  0  0  0  0  0  0
    2.0160   -0.4950   -0.9220 O   0  0  0  0  0  0  0  0  0  0  0  0
    0.3600    0.8810    0.0490 C   0  0  0  0  0  0  0  0  0  0  0  0
    0.1400    2.2470    0.3340 C   0  0  0  0  0  0  0  0  0  0  0  0
   -1.1350    2.6760    0.5230 C   0  0  0  0  0  0  0  0  0  0  0  0
   -2.2170    1.8150    0.4420 C   0  0  0  0  0  0  0  0  0  0  0  0
   -3.4580    2.3520    0.6350 N   0  0  0  0  0  0  0  0  0  0  0  0
   -4.5710    1.6020    0.5650 C   0  0  0  0  0  0  0  0  0  0  0  0
   -5.7250    2.0880    0.7430 O   0  0  0  0  0  0  0  0  0  0  0  0
   -4.4680    0.2600    0.2930 C   0  0  0  0  0  0  0  0  0  0  0  0
   -3.2160   -0.2710    0.1000 C   0  0  0  0  0  0  0  0  0  0  0  0
   -2.0370    0.4830    0.1680 C   0  0  0  0  0  0  0  0  0  0  0  0
   -0.6980    0.0640   -0.0200 C   0  0  0  0  0  0  0  0  0  0  0  0
   -0.4330   -1.3970   -0.2220 C   0  0  0  0  0  0  0  0  0  0  0  0
   -1.0410   -1.7840   -1.5290 C   0  0  0  0  0  0  0  0  0  0  0  0
   -2.5040   -2.0650   -1.4890 C   0  0  0  0  0  0  0  0  0  0  0  0
   -3.2250   -1.7340   -0.2180 C   0  0  0  0  0  0  0  0  0  0  0  0
  1  2  1  0
  2  3  1  0
  3  4  1  0
  4  5  1  0
  5  6  2  0
  5  7  1  0
  7  8  2  0
  7 17  1  0
  8  9  1  0
  9 10  2  0
 10 11  1  0
 10 16  1  0
 11 12  1  0
 12 13  2  0
 12 14  1  0
 14 15  2  0
 15 16  1  0
 15 21  1  0
 16 17  2  0
 17 18  1  0
 18 19  1  0
 19 20  1  0
 20 21  1  0
M  END
