
     RDKit          3D

 21 23  0  0  0  0  0  0  0  0999 V2000
    5.3440    1.6290    0.9280 C   0  0  0  0  0  0  0  0  0  0  0  0
    5.6470    0.2650    0.3490 C   0  0  0  0  0  0  0  0  0  0  0  0
    4.6440   -0.0030   -0.7450 C   0  0  0  0  0  0  0  0  0  0  0  0
    3.2660    0.0320   -0.1210 C   0  0  0  0  0  0  0  0  0  0  0  0
    2.2080   -0.2250   -1.1380 C   0  0  0  0  0  0  0  0  0  0  0  0
    2.5510   -0.4270   -2.3110 O   0  0  0  0  0  0  0  0  0  0  0  0
    0.8110   -0.2320   -0.7320 C   0  0  0  0  0  0  0  0  0  0  0  0
    0.3000   -0.0270    0.5060 N   0  0  0  0  0  0  0  0  0  0  0  0
   -1.0520   -0.1160    0.4690 C   0  0  0  0  0  0  0  0  0  0  0  0
   -2.0380    0.0060    1.4250 C   0  0  0  0  0  0  0  0  0  0  0  0
   -3.3900   -0.1370    1.1030 C   0  0  0  0  0  0  0  0  0  0  0  0
   -3.7480   -0.4050   -0.1980 C   0  0  0  0  0  0  0  0  0  0  0  0
   -2.7310   -0.5230   -1.1380 C   0  0  0  0  0  0  0  0  0  0  0  0
   -1.3930   -0.3850   -0.8390 C   0  0  0  0  0  0  0  0  0  0  0  0
   -0.2350   -0.4600   -1.5990 C   0  0  0  0  0  0  0  0  0  0  0  0
   -0.1250   -0.7290   -3.0480 C   0  0  0  0  0  0  0  0  0  0  0  0
   -5.0890   -0.5560   -0.5720 O   0  0  0  0  0  0  0  0  0  0  0  0
   -6.1120   -0.4400    0.3570 C   0  0  0  0  0  0  0  0  0  0  0  0
   -7.2590   -0.9180    0.2270 O   0  0  0  0  0  0  0  0  0  0  0  0
   -5.7940    0.3160    1.5920 C   0  0  0  0  0  0  0  0  0  0  0  0
   -4.4450   -0.0110    2.1330 C   0  0  0  0  0  0  0  0  0  0  0  0
  1  2  1  0
  2  3  1  0
  3  4  1  0
  4  5  1  0
  5  6  2  0
  5  7  1  0
  7  8  1  0
  7 15  2  0
  8  9  1  0
  9 10  2  0
  9 14  1  0
 10 11  1  0
 11 12  2  0
 11 21  1  0
 12 13  1  0
 12 17  1  0
 13 14  2  0
 14 15  1  0
 15 16  1  0
 17 18  1  0
 18 19  2  0
 18 20  1  0
 20 21  1  0
M  END
