
     RDKit          3D

 21 23  0  0  0  0  0  0  0  0999 V2000
   -3.0480   -2.1320    1.1130 C   0  0  0  0  0  0  0  0  0  0  0  0
   -3.8780   -1.4310    0.3770 C   0  0  0  0  0  0  0  0  0  0  0  0
   -3.9950    0.0170    0.4030 C   0  0  0  0  0  0  0  0  0  0  0  0
   -4.9080    0.5690   -0.4160 C   0  0  0  0  0  0  0  0  0  0  0  0
   -3.1670    0.8490    1.2750 C   0  0  0  0  0  0  0  0  0  0  0  0
   -1.7430    0.7280    1.0700 N   0  0  0  0  0  0  0  0  0  0  0  0
   -1.1340    1.1980   -0.1100 C   0  0  0  0  0  0  0  0  0  0  0  0
   -1.7880    2.0180   -1.0030 C   0  0  0  0  0  0  0  0  0  0  0  0
   -1.1260    2.4810   -2.1120 C   0  0  0  0  0  0  0  0  0  0  0  0
   -1.7200    3.2450   -2.9570 O   0  0  0  0  0  0  0  0  0  0  0  0
    0.1160    2.1370   -2.3040 O   0  0  0  0  0  0  0  0  0  0  0  0
    0.7880    1.3750   -1.5090 C   0  0  0  0  0  0  0  0  0  0  0  0
    2.1040    1.0330   -1.7480 C   0  0  0  0  0  0  0  0  0  0  0  0
    2.8320    0.2080   -0.8910 C   0  0  0  0  0  0  0  0  0  0  0  0
    2.2570   -0.3020    0.2380 C   0  0  0  0  0  0  0  0  0  0  0  0
    0.9210    0.0400    0.4880 C   0  0  0  0  0  0  0  0  0  0  0  0
    0.2030    0.8510   -0.3520 C   0  0  0  0  0  0  0  0  0  0  0  0
    3.2260   -1.1540    0.9970 C   0  0  0  0  0  0  0  0  0  0  0  0
    4.5300   -0.7370    0.3370 C   0  0  1  0  0  0  0  0  0  0  0  0
    5.4270   -1.9500    0.1090 C   0  0  0  0  0  0  0  0  0  0  0  0
    4.1500   -0.2580   -0.9380 O   0  0  0  0  0  0  0  0  0  0  0  0
  1  2  2  0
  2  3  1  0
  3  4  2  0
  3  5  1  0
  5  6  1  0
  6  7  1  0
  7  8  2  0
  7 17  1  0
  8  9  1  0
  9 10  2  0
  9 11  1  0
 11 12  1  0
 12 13  2  0
 12 17  1  0
 13 14  1  0
 14 15  2  0
 14 21  1  0
 15 16  1  0
 15 18  1  0
 16 17  2  0
 18 19  1  0
 19 20  1  6
 19 21  1  0
M  END
