
     RDKit          3D

 25 26  0  0  0  0  0  0  0  0999 V2000
    5.9800    3.8370   -0.4060 C   0  0  0  0  0  0  0  0  0  0  0  0
    6.0770    3.2050    0.9680 C   0  0  0  0  0  0  0  0  0  0  0  0
    5.6770    1.8490    0.9020 O   0  0  0  0  0  0  0  0  0  0  0  0
    4.4120    1.5060    0.4850 C   0  0  0  0  0  0  0  0  0  0  0  0
    3.6090    2.4070    0.1600 O   0  0  0  0  0  0  0  0  0  0  0  0
    4.0210    0.1160    0.4240 C   0  0  0  0  0  0  0  0  0  0  0  0
    4.8510   -0.7690    0.7560 O   0  0  0  0  0  0  0  0  0  0  0  0
    2.7040   -0.2880   -0.0080 N   0  0  0  0  0  0  0  0  0  0  0  0
    2.4240   -1.6940   -0.0300 C   0  0  0  0  0  0  0  0  0  0  0  0
    1.0430   -2.0280   -0.4880 C   0  0  2  0  0  0  0  0  0  0  0  0
    0.0510   -1.3730    0.4530 C   0  0  0  0  0  0  0  0  0  0  0  0
   -1.2940   -1.7340    0.1700 N   0  0  0  0  0  0  0  0  0  0  0  0
   -1.9940   -0.9140   -0.7640 C   0  0  0  0  0  0  0  0  0  0  0  0
   -2.1060    0.4520   -0.3010 N   0  0  2  0  0  0  0  0  0  0  0  0
   -2.4940    0.5130    1.1020 C   0  0  0  0  0  0  0  0  0  0  0  0
   -3.1470    1.8560    1.3550 C   0  0  0  0  0  0  0  0  0  0  0  0
   -4.5360    1.8820    0.7430 C   0  0  1  0  0  0  0  0  0  0  0  0
   -4.9330    3.2900    0.3710 C   0  0  0  0  0  0  0  0  0  0  0  0
   -4.4840    1.0350   -0.5170 C   0  0  0  0  0  0  0  0  0  0  0  0
   -3.0960    1.1840   -1.0860 C   0  0  0  0  0  0  0  0  0  0  0  0
   -1.4910   -3.1340   -0.0450 C   0  0  0  0  0  0  0  0  0  0  0  0
   -0.2410   -3.9420    0.2200 C   0  0  0  0  0  0  0  0  0  0  0  0
    0.9030   -3.4560   -0.5160 N   0  0  1  0  0  0  0  0  0  0  0  0
    0.8210   -3.8890   -1.9150 C   0  0  0  0  0  0  0  0  0  0  0  0
    1.9990   -4.0720   -0.0040 O   0  0  0  0  0  0  0  0  0  0  0  0
  1  2  1  0
  2  3  1  0
  3  4  1  0
  4  5  2  0
  4  6  1  0
  6  7  2  0
  6  8  1  0
  8  9  1  0
 10  9  1  1
 10 11  1  0
 10 23  1  0
 11 12  1  0
 12 13  1  0
 12 21  1  0
 14 13  1  6
 14 15  1  0
 14 20  1  0
 15 16  1  0
 16 17  1  0
 17 18  1  6
 17 19  1  0
 19 20  1  0
 21 22  1  0
 22 23  1  0
 23 24  1  6
 23 25  1  0
M  CHG  3  14   1  23   1  25  -1
M  END
