
     RDKit          3D

 25 26  0  0  0  0  0  0  0  0999 V2000
   -4.1960    3.7660   -1.1350 C   0  0  0  0  0  0  0  0  0  0  0  0
   -4.0060    2.5070   -1.9170 C   0  0  0  0  0  0  0  0  0  0  0  0
   -2.7180    1.8420   -1.4160 C   0  0  0  0  0  0  0  0  0  0  0  0
   -2.8070    0.6850   -0.8090 C   0  0  0  0  0  0  0  0  0  0  0  0
   -4.1190    0.1260   -0.6580 O   0  0  0  0  0  0  0  0  0  0  0  0
   -4.0450   -1.0630    0.0430 C   0  0  0  0  0  0  0  0  0  0  0  0
   -2.6080   -1.2860    0.2950 C   0  0  0  0  0  0  0  0  0  0  0  0
   -2.0080   -2.5130    0.7860 C   0  0  0  0  0  0  0  0  0  0  0  0
   -2.6300   -3.5170    1.3160 C   0  0  0  0  0  0  0  0  0  0  0  0
   -3.9770   -3.6990    1.5560 N   0  0  0  0  0  0  0  0  0  0  0  0
   -0.5940   -2.7250    0.5870 N   0  0  0  0  0  0  0  0  0  0  0  0
   -0.1060   -2.6140   -0.5700 O   0  0  0  0  0  0  0  0  0  0  0  0
    0.2070   -3.0730    1.6350 O   0  0  0  0  0  0  0  0  0  0  0  0
   -1.8920   -0.2470   -0.1960 C   0  0  0  0  0  0  0  0  0  0  0  0
   -0.5410    0.0300    0.1630 N   0  0  0  0  0  0  0  0  0  0  0  0
    0.4070    0.9240   -0.2640 C   0  0  0  0  0  0  0  0  0  0  0  0
    0.0510    1.6460   -1.2970 O   0  0  0  0  0  0  0  0  0  0  0  0
    1.7280    1.2130    0.2220 C   0  0  1  0  0  0  0  0  0  0  0  0
    1.9170    1.7980    1.5990 C   0  0  0  0  0  0  0  0  0  0  0  0
    3.4350    1.6100    1.8450 C   0  0  0  0  0  0  0  0  0  0  0  0
    3.9130    1.1410    0.4710 C   0  0  0  0  0  0  0  0  0  0  0  0
    2.7990    0.2880    0.0720 N   0  0  2  0  0  0  0  0  0  0  0  0
    2.9610   -0.4680   -1.0940 C   0  0  0  0  0  0  0  0  0  0  0  0
    4.3740   -0.9900   -1.2800 C   0  0  0  0  0  0  0  0  0  0  0  0
    4.8290   -1.8510   -0.1010 C   0  0  0  0  0  0  0  0  0  0  0  0
  1  2  1  0
  2  3  1  0
  3  4  2  3
  4  5  1  0
  4 14  1  0
  5  6  1  0
  6  7  1  0
  7  8  1  0
  7 14  2  0
  8  9  2  3
  8 11  1  0
  9 10  1  0
 11 12  2  0
 11 13  1  0
 14 15  1  0
 15 16  1  0
 16 17  2  0
 18 16  1  1
 18 19  1  0
 18 22  1  0
 19 20  1  0
 20 21  1  0
 21 22  1  0
 22 23  1  6
 23 24  1  0
 24 25  1  0
M  CHG  3  11   1  13  -1  22   1
M  END
