
     RDKit          3D

 24 25  0  0  0  0  0  0  0  0999 V2000
   -2.1360   -0.3140   -3.0390 C   0  0  0  0  0  0  0  0  0  0  0  0
   -3.1540   -0.4390   -1.9400 C   0  0  0  0  0  0  0  0  0  0  0  0
   -2.5390   -0.8000   -0.6710 N   0  0  1  0  0  0  0  0  0  0  0  0
   -1.4260    0.0520   -0.4370 C   0  0  0  0  0  0  0  0  0  0  0  0
   -0.1850   -0.6880   -0.0950 C   0  0  0  0  0  0  0  0  0  0  0  0
   -0.2380   -1.9370   -0.0490 O   0  0  0  0  0  0  0  0  0  0  0  0
    1.0620   -0.0780    0.1850 N   0  0  0  0  0  0  0  0  0  0  0  0
    1.0670    1.3940    0.1180 C   0  0  0  0  0  0  0  0  0  0  0  0
    2.3080    1.8370   -0.6190 C   0  0  0  0  0  0  0  0  0  0  0  0
    3.5270    1.3040    0.0540 C   0  0  1  0  0  0  0  0  0  0  0  0
    3.5350   -0.1470    0.3550 C   0  0  1  0  0  0  0  0  0  0  0  0
    4.3940   -0.4660    1.5800 C   0  0  0  0  0  0  0  0  0  0  0  0
    5.7980   -0.2810    1.3320 N   0  0  0  0  0  0  0  0  0  0  0  0
    6.5130    0.6180    0.4920 C   0  0  0  0  0  0  0  0  0  0  0  0
    7.7380    0.7620    0.6570 O   0  0  0  0  0  0  0  0  0  0  0  0
    5.9030    1.4060   -0.5760 C   0  0  0  0  0  0  0  0  0  0  0  0
    4.6680    1.7070   -0.7830 N   0  0  0  0  0  0  0  0  0  0  0  0
    4.4180    2.4760   -1.8950 O   0  0  0  0  0  0  0  0  0  0  0  0
    2.2320   -0.8290    0.5090 C   0  0  0  0  0  0  0  0  0  0  0  0
   -3.4600   -0.9590    0.3870 C   0  0  2  0  0  0  0  0  0  0  0  0
   -2.9150   -2.0540    1.3170 C   0  0  0  0  0  0  0  0  0  0  0  0
   -4.7530   -1.5370   -0.1810 C   0  0  0  0  0  0  0  0  0  0  0  0
   -3.7930    0.2240    1.2010 C   0  0  0  0  0  0  0  0  0  0  0  0
   -4.4060    1.3760    0.4550 C   0  0  0  0  0  0  0  0  0  0  0  0
  1  2  1  0
  3  2  1  6
  3  4  1  0
  3 20  1  0
  4  5  1  0
  5  6  2  0
  5  7  1  0
  7  8  1  0
  7 19  1  0
  8  9  1  0
 10  9  1  6
 10 11  1  0
 10 17  1  0
 11 12  1  1
 11 19  1  0
 12 13  1  0
 13 14  1  0
 14 15  2  0
 14 16  1  0
 16 17  2  0
 17 18  1  0
 20 21  1  1
 20 22  1  0
 20 23  1  0
 23 24  1  0
M  CHG  3   3   1  17   1  18  -1
M  END
