
     RDKit          3D

 25 27  0  0  0  0  0  0  0  0999 V2000
   -5.5660   -2.2110    1.5300 C   0  0  0  0  0  0  0  0  0  0  0  0
   -4.0780   -2.0170    1.5050 C   0  0  0  0  0  0  0  0  0  0  0  0
   -3.8090   -0.9670    0.4710 N   0  0  2  0  0  0  0  0  0  0  0  0
   -4.4130   -1.4650   -0.7570 C   0  0  0  0  0  0  0  0  0  0  0  0
   -2.3960   -0.9770    0.3110 C   0  0  0  0  0  0  0  0  0  0  0  0
   -1.7390    0.1340   -0.3510 C   0  0  0  0  0  0  0  0  0  0  0  0
   -0.3380    0.1290   -0.5250 C   0  0  0  0  0  0  0  0  0  0  0  0
    0.6120   -0.9460   -0.0760 C   0  0  0  0  0  0  0  0  0  0  0  0
    1.9570   -0.5620   -0.4510 N   0  0  1  0  0  0  0  0  0  0  0  0
    1.9150   -0.1280   -1.7350 O   0  0  0  0  0  0  0  0  0  0  0  0
    2.3880    0.4780    0.4540 C   0  0  0  0  0  0  0  0  0  0  0  0
    3.6970    1.0000   -0.1490 C   0  0  0  0  0  0  0  0  0  0  0  0
    4.7170   -0.0860    0.0690 C   0  0  1  0  0  0  0  0  0  0  0  0
    4.2480   -1.4680   -0.1870 C   0  0  0  0  0  0  0  0  0  0  0  0
    2.8030   -1.6990   -0.3520 C   0  0  0  0  0  0  0  0  0  0  0  0
    5.7960    0.1710   -0.7960 O   0  0  0  0  0  0  0  0  0  0  0  0
    6.9110    0.4080   -0.0340 C   0  0  0  0  0  0  0  0  0  0  0  0
    6.2710    0.9700    1.2440 C   0  0  0  0  0  0  0  0  0  0  0  0
    5.2010    0.0960    1.3720 O   0  0  0  0  0  0  0  0  0  0  0  0
   -0.0100    1.2340   -1.1510 N   0  0  0  0  0  0  0  0  0  0  0  0
   -1.0980    1.9290   -1.3820 N   0  0  0  0  0  0  0  0  0  0  0  0
   -2.2000    1.2810   -0.8980 C   0  0  0  0  0  0  0  0  0  0  0  0
   -3.5860    1.7760   -1.0500 C   0  0  0  0  0  0  0  0  0  0  0  0
   -3.5970    3.0780   -1.5980 O   0  0  0  0  0  0  0  0  0  0  0  0
   -3.1700    3.9940   -0.6760 C   0  0  0  0  0  0  0  0  0  0  0  0
  1  2  1  0
  2  3  1  0
  3  4  1  6
  3  5  1  0
  5  6  1  0
  6  7  1  0
  6 22  2  0
  7  8  1  0
  7 20  2  0
  8  9  1  0
  9 10  1  6
  9 11  1  0
  9 15  1  0
 11 12  1  0
 13 12  1  6
 13 14  1  0
 13 16  1  0
 13 19  1  0
 14 15  1  0
 16 17  1  0
 17 18  1  0
 18 19  1  0
 20 21  1  0
 21 22  1  0
 22 23  1  0
 23 24  1  0
 24 25  1  0
M  CHG  3   3   1   9   1  10  -1
M  END
