
     RDKit          3D

 22 24  0  0  0  0  0  0  0  0999 V2000
   -5.6790    0.0340    0.5290 C   0  0  0  0  0  0  0  0  0  0  0  0
   -4.5710   -0.3010   -0.4240 C   0  0  2  0  0  0  0  0  0  0  0  0
   -4.1900   -1.7870   -0.3530 C   0  0  0  0  0  0  0  0  0  0  0  0
   -2.7340   -1.7340   -0.5850 N   0  0  0  0  0  0  0  0  0  0  0  0
   -2.3890   -0.6340    0.2960 C   0  0  1  0  0  0  0  0  0  0  0  0
   -1.0170   -0.1170    0.0890 C   0  0  0  0  0  0  0  0  0  0  0  0
   -0.4280    1.2110    1.0190 Cl  0  0  0  0  0  0  0  0  0  0  0  0
   -0.2640   -0.6990   -0.8160 C   0  0  0  0  0  0  0  0  0  0  0  0
    1.0700   -0.1640   -0.9870 N   0  0  0  0  0  0  0  0  0  0  0  0
    1.9680   -0.3230    0.0770 C   0  0  0  0  0  0  0  0  0  0  0  0
    1.5470   -0.9620    1.2020 N   0  0  0  0  0  0  0  0  0  0  0  0
    2.3690   -1.1370    2.2440 C   0  0  0  0  0  0  0  0  0  0  0  0
    3.6590   -0.6610    2.1700 C   0  0  0  0  0  0  0  0  0  0  0  0
    4.1040   -0.0160    1.0520 C   0  0  0  0  0  0  0  0  0  0  0  0
    5.3930    0.4790    0.9350 C   0  0  0  0  0  0  0  0  0  0  0  0
    5.8240    1.1270   -0.2010 C   0  0  0  0  0  0  0  0  0  0  0  0
    4.9940    1.3150   -1.2800 C   0  0  0  0  0  0  0  0  0  0  0  0
    5.4080    1.9800   -2.4680 N   0  0  0  0  0  0  0  0  0  0  0  0
    3.6930    0.8210   -1.1750 C   0  0  0  0  0  0  0  0  0  0  0  0
    3.2590    0.1700   -0.0340 C   0  0  0  0  0  0  0  0  0  0  0  0
   -3.3680    0.3050   -0.0080 N   0  0  0  0  0  0  0  0  0  0  0  0
   -3.3600    1.5820    0.5130 C   0  0  0  0  0  0  0  0  0  0  0  0
  2  1  1  1
  2  3  1  0
  2 21  1  0
  3  4  1  0
  4  5  1  0
  5  6  1  6
  5 21  1  0
  6  7  1  0
  6  8  2  3
  8  9  1  0
  9 10  1  0
 10 11  2  0
 10 20  1  0
 11 12  1  0
 12 13  2  0
 13 14  1  0
 14 15  2  0
 14 20  1  0
 15 16  1  0
 16 17  2  0
 17 18  1  0
 17 19  1  0
 19 20  2  0
 21 22  1  0
M  CHG  1   4   1
M  END
