
     RDKit          3D

 23 25  0  0  0  0  0  0  0  0999 V2000
   -1.5710    2.9150   -0.7060 N   0  0  0  0  0  0  0  0  0  0  0  0
   -1.9100    1.5680   -0.3660 C   0  0  0  0  0  0  0  0  0  0  0  0
   -3.0870    1.1040    0.0650 C   0  0  0  0  0  0  0  0  0  0  0  0
   -4.3360    1.8960    0.2950 C   0  0  0  0  0  0  0  0  0  0  0  0
   -5.3900    1.0500    0.9580 C   0  0  0  0  0  0  0  0  0  0  0  0
   -5.4360   -0.2990    0.2760 C   0  0  0  0  0  0  0  0  0  0  0  0
   -4.2370   -1.0790    0.7990 C   0  0  2  0  0  0  0  0  0  0  0  0
   -4.3270   -2.7100    0.1030 Cl  0  0  0  0  0  0  0  0  0  0  0  0
   -4.2500   -1.1150    2.5750 Cl  0  0  0  0  0  0  0  0  0  0  0  0
   -3.0280   -0.3300    0.3030 C   0  0  0  0  0  0  0  0  0  0  0  0
   -1.8250   -0.6950    0.0100 N   0  0  0  0  0  0  0  0  0  0  0  0
   -1.0360    0.4040   -0.4190 C   0  0  0  0  0  0  0  0  0  0  0  0
    0.2310    0.4390   -0.7940 C   0  0  0  0  0  0  0  0  0  0  0  0
    1.0810   -0.7570   -0.8350 C   0  0  0  0  0  0  0  0  0  0  0  0
    0.5900   -1.9740   -1.2620 C   0  0  0  0  0  0  0  0  0  0  0  0
    1.4260   -3.0690   -1.2800 C   0  0  0  0  0  0  0  0  0  0  0  0
    2.7530   -2.9180   -0.8640 C   0  0  0  0  0  0  0  0  0  0  0  0
    3.2230   -1.6950   -0.4410 C   0  0  0  0  0  0  0  0  0  0  0  0
    4.5720   -1.5440   -0.0180 N   0  0  0  0  0  0  0  0  0  0  0  0
    5.0870   -0.2860    0.4370 C   0  0  0  0  0  0  0  0  0  0  0  0
    4.3780    0.2750    1.6480 C   0  0  0  0  0  0  0  0  0  0  0  0
    5.0370    1.5330    1.9630 N   0  0  0  0  0  0  0  0  0  0  0  0
    2.3810   -0.6410   -0.4350 N   0  0  0  0  0  0  0  0  0  0  0  0
  1  2  1  0
  2  3  2  0
  2 12  1  0
  3  4  1  0
  3 10  1  0
  4  5  1  0
  5  6  1  0
  6  7  1  0
  7  8  1  6
  7  9  1  0
  7 10  1  0
 10 11  2  0
 11 12  1  0
 12 13  2  3
 13 14  1  0
 14 15  2  0
 14 23  1  0
 15 16  1  0
 16 17  2  0
 17 18  1  0
 18 19  1  0
 18 23  2  0
 19 20  1  0
 20 21  1  0
 21 22  1  0
M  CHG  1  22   1
M  END
