
     RDKit          3D

 23 25  0  0  0  0  0  0  0  0999 V2000
   -2.7360   -3.7610   -0.1180 C   0  0  0  0  0  0  0  0  0  0  0  0
   -2.2430   -2.4560   -0.6770 C   0  0  0  0  0  0  0  0  0  0  0  0
   -3.0640   -1.4510   -0.9430 C   0  0  0  0  0  0  0  0  0  0  0  0
   -2.5300   -0.1490   -1.5050 C   0  0  0  0  0  0  0  0  0  0  0  0
   -1.2420    0.1770   -0.8810 C   0  0  0  0  0  0  0  0  0  0  0  0
   -0.3990   -0.9150   -0.6100 C   0  0  0  0  0  0  0  0  0  0  0  0
    0.7800   -0.6220   -0.0450 N   0  0  0  0  0  0  0  0  0  0  0  0
    1.2080    0.5990    0.2740 C   0  0  0  0  0  0  0  0  0  0  0  0
    2.4710    0.8650    0.8730 N   0  0  0  0  0  0  0  0  0  0  0  0
    3.4730   -0.0100    1.2290 C   0  0  0  0  0  0  0  0  0  0  0  0
    3.4430   -1.3490    0.9910 C   0  0  0  0  0  0  0  0  0  0  0  0
    4.5100   -2.1780    1.3790 C   0  0  0  0  0  0  0  0  0  0  0  0
    4.3950   -3.8900    1.0420 Cl  0  0  0  0  0  0  0  0  0  0  0  0
    5.5870   -1.6660    1.9940 N   0  0  0  0  0  0  0  0  0  0  0  0
    5.6570   -0.3450    2.2480 C   0  0  0  0  0  0  0  0  0  0  0  0
    4.6150    0.4720    1.8710 C   0  0  0  0  0  0  0  0  0  0  0  0
    4.6920    2.1910    2.2000 Cl  0  0  0  0  0  0  0  0  0  0  0  0
    0.3490    1.6140   -0.0130 N   0  0  0  0  0  0  0  0  0  0  0  0
   -0.8590    1.4550   -0.5770 C   0  0  0  0  0  0  0  0  0  0  0  0
   -1.7490    2.6120   -0.8480 C   0  0  2  0  0  0  0  0  0  0  0  0
   -1.0040    3.9300   -0.7280 C   0  0  0  0  0  0  0  0  0  0  0  0
   -2.9330    2.6140   -0.0040 N   0  0  0  0  0  0  0  0  0  0  0  0
   -0.8080   -2.2980   -0.9450 C   0  0  0  0  0  0  0  0  0  0  0  0
  1  2  1  0
  2  3  2  0
  2 23  1  0
  3  4  1  0
  4  5  1  0
  5  6  2  0
  5 19  1  0
  6  7  1  0
  6 23  1  0
  7  8  2  0
  8  9  1  0
  8 18  1  0
  9 10  1  0
 10 11  2  0
 10 16  1  0
 11 12  1  0
 12 13  1  0
 12 14  2  0
 14 15  1  0
 15 16  2  0
 16 17  1  0
 18 19  2  0
 19 20  1  0
 20 21  1  1
 20 22  1  0
M  CHG  1  22   1
M  END
