
     RDKit          3D

 18 20  0  0  0  0  0  0  0  0999 V2000
    0.4200   -2.4660   -1.3700 O   0  0  0  0  0  0  0  0  0  0  0  0
    1.0240   -1.6420   -0.6000 C   0  0  0  0  0  0  0  0  0  0  0  0
    2.2380   -2.2200    0.0560 C   0  0  0  0  0  0  0  0  0  0  0  0
    3.0010   -1.2170    0.7430 N   0  0  0  0  0  0  0  0  0  0  0  0
    3.5240   -0.1810   -0.0930 C   0  0  0  0  0  0  0  0  0  0  0  0
    2.5950    0.9330   -0.0720 N   0  0  0  0  0  0  0  0  0  0  0  0
    1.1710    0.7850   -0.2680 C   0  0  0  0  0  0  0  0  0  0  0  0
    0.4340   -0.3040   -0.5000 C   0  0  0  0  0  0  0  0  0  0  0  0
   -0.9320   -0.7430   -0.7260 C   0  0  1  0  0  0  0  0  0  0  0  0
   -1.2550   -1.9780    0.1040 C   0  0  0  0  0  0  0  0  0  0  0  0
   -2.4590   -1.5840    0.9810 C   0  0  0  0  0  0  0  0  0  0  0  0
   -3.1790   -0.6850   -0.0410 C   0  0  0  0  0  0  0  0  0  0  0  0
   -1.9930    0.2040   -0.3570 C   0  0  0  0  0  0  0  0  0  0  0  0
   -2.2660    1.4810   -0.2020 C   0  0  0  0  0  0  0  0  0  0  0  0
   -4.0460    1.8730    0.3480 Br  0  0  0  0  0  0  0  0  0  0  0  0
   -1.4560    2.7000   -0.3640 C   0  0  0  0  0  0  0  0  0  0  0  0
   -0.3200    2.5720    0.6610 C   0  0  0  0  0  0  0  0  0  0  0  0
    0.9010    2.2140   -0.1300 C   0  0  0  0  0  0  0  0  0  0  0  0
  1  2  2  0
  2  3  1  0
  2  8  1  0
  3  4  1  0
  4  5  1  0
  5  6  1  0
  6  7  1  0
  7  8  2  0
  7 18  1  0
  8  9  1  0
  9 10  1  1
  9 13  1  0
 10 11  1  0
 11 12  1  0
 12 13  1  0
 13 14  2  0
 14 15  1  0
 14 16  1  0
 16 17  1  0
 17 18  1  0
M  END
