
     RDKit          3D

 21 21  0  0  0  0  0  0  0  0999 V2000
   -5.3420   -0.9220   -2.5560 C   0  0  0  0  0  0  0  0  0  0  0  0
   -4.8500    0.3610   -2.4180 O   0  0  0  0  0  0  0  0  0  0  0  0
   -3.4550    0.4100   -2.3670 C   0  0  0  0  0  0  0  0  0  0  0  0
   -2.8940   -0.3630   -1.2290 C   0  0  0  0  0  0  0  0  0  0  0  0
   -1.3960   -0.2900   -1.2130 C   0  0  0  0  0  0  0  0  0  0  0  0
   -0.8750    1.0660   -1.0340 C   0  0  0  0  0  0  0  0  0  0  0  0
   -1.5990    2.0570   -0.8210 O   0  0  0  0  0  0  0  0  0  0  0  0
    0.5370    1.2660   -1.1070 N   0  0  0  0  0  0  0  0  0  0  0  0
    1.0270    2.5770   -0.9340 C   0  0  0  0  0  0  0  0  0  0  0  0
    1.8500    2.9020    0.0320 C   0  0  0  0  0  0  0  0  0  0  0  0
    2.3160    1.8890    1.0100 C   0  0  0  0  0  0  0  0  0  0  0  0
    3.1410    2.2400    1.9680 C   0  0  0  0  0  0  0  0  0  0  0  0
    3.6510    1.3250    2.9700 C   0  0  0  0  0  0  0  0  0  0  0  0
    4.4430    1.6560    3.8890 O   0  0  0  0  0  0  0  0  0  0  0  0
    3.2070   -0.0880    2.8970 C   0  0  0  0  0  0  0  0  0  0  0  0
    3.6310   -0.9360    3.7600 N   0  0  0  0  0  0  0  0  0  0  0  0
    2.2980   -0.4260    1.8240 C   0  0  0  0  0  0  0  0  0  0  0  0
    1.8330   -1.6440    1.6540 C   0  0  0  0  0  0  0  0  0  0  0  0
    2.0600   -2.8640    2.3940 C   0  0  0  0  0  0  0  0  0  0  0  0
    0.8170   -3.3290    2.8960 O   0  0  0  0  0  0  0  0  0  0  0  0
    1.8850    0.5880    0.9150 O   0  0  0  0  0  0  0  0  0  0  0  0
  1  2  1  0
  2  3  1  0
  3  4  1  0
  4  5  1  0
  5  6  1  0
  6  7  2  0
  6  8  1  0
  8  9  1  0
  9 10  2  3
 10 11  1  0
 11 12  2  0
 11 21  1  0
 12 13  1  0
 13 14  2  0
 13 15  1  0
 15 16  2  0
 15 17  1  0
 17 18  2  3
 17 21  1  0
 18 19  1  0
 19 20  1  0
M  END
