
     RDKit          3D

 17 19  0  0  0  0  0  0  0  0999 V2000
   -1.3030    2.6820    0.6090 C   0  0  0  0  0  0  0  0  0  0  0  0
   -0.0360    1.9950    0.2000 C   0  0  0  0  0  0  0  0  0  0  0  0
    0.0650    0.5810    0.7190 C   0  0  2  0  0  0  0  0  0  0  0  0
    1.3560    0.0540    0.2320 C   0  0  0  0  0  0  0  0  0  0  0  0
    1.5100   -0.5040   -0.9470 C   0  0  0  0  0  0  0  0  0  0  0  0
    2.9130   -0.9390   -1.1650 C   0  0  0  0  0  0  0  0  0  0  0  0
    3.3460   -1.1530    0.2930 C   0  0  0  0  0  0  0  0  0  0  0  0
    2.6970    0.0500    0.9370 C   0  0  0  0  0  0  0  0  0  0  0  0
    0.0680   -0.6400   -2.0020 S   0  0  0  0  0  0  0  0  0  0  0  0
   -1.2760   -0.8640   -0.8460 C   0  0  0  0  0  0  0  0  0  0  0  0
   -2.3270   -1.6020   -1.1980 N   0  0  0  0  0  0  0  0  0  0  0  0
   -3.3400   -1.7790   -0.3000 C   0  0  0  0  0  0  0  0  0  0  0  0
   -4.3520   -2.4730   -0.5990 O   0  0  0  0  0  0  0  0  0  0  0  0
   -3.2230   -1.1940    0.9010 N   0  0  0  0  0  0  0  0  0  0  0  0
   -2.1560   -0.4460    1.2530 C   0  0  0  0  0  0  0  0  0  0  0  0
   -2.1000    0.0810    2.4010 O   0  0  0  0  0  0  0  0  0  0  0  0
   -1.1080   -0.2420    0.3720 C   0  0  0  0  0  0  0  0  0  0  0  0
  1  2  1  0
  3  2  1  6
  3  4  1  0
  3 17  1  0
  4  5  2  0
  4  8  1  0
  5  6  1  0
  5  9  1  0
  6  7  1  0
  7  8  1  0
  9 10  1  0
 10 11  1  0
 10 17  2  0
 11 12  1  0
 12 13  2  0
 12 14  1  0
 14 15  1  0
 15 16  2  0
 15 17  1  0
M  END
