
     RDKit          3D

 24 27  0  0  0  0  0  0  0  0999 V2000
   -5.8590    1.3240    0.8820 C   0  0  0  0  0  0  0  0  0  0  0  0
   -5.0160    0.4270    0.1000 N   0  0  0  0  0  0  0  0  0  0  0  0
   -5.5970   -0.4410   -0.7490 C   0  0  0  0  0  0  0  0  0  0  0  0
   -4.8030   -1.2980   -1.4970 C   0  0  0  0  0  0  0  0  0  0  0  0
   -3.4280   -1.2750   -1.3860 C   0  0  0  0  0  0  0  0  0  0  0  0
   -2.6140   -2.1160   -2.1180 C   0  0  0  0  0  0  0  0  0  0  0  0
   -1.2360   -2.0510   -1.9670 C   0  0  0  0  0  0  0  0  0  0  0  0
   -0.6830   -1.1470   -1.0870 C   0  0  0  0  0  0  0  0  0  0  0  0
    0.7690   -1.1040   -0.9520 C   0  0  0  0  0  0  0  0  0  0  0  0
    1.4820   -0.2640   -0.1210 C   0  0  0  0  0  0  0  0  0  0  0  0
    2.7860   -0.5060   -0.2610 N   0  0  0  0  0  0  0  0  0  0  0  0
    3.8330    0.1630    0.4320 C   0  0  0  0  0  0  0  0  0  0  0  0
    4.2820    1.4200    0.1060 C   0  0  0  0  0  0  0  0  0  0  0  0
    5.2980    2.0690    0.7790 C   0  0  0  0  0  0  0  0  0  0  0  0
    5.9120    1.4350    1.8450 C   0  0  0  0  0  0  0  0  0  0  0  0
    6.9360    2.0670    2.5370 O   0  0  0  0  0  0  0  0  0  0  0  0
    5.4710    0.1660    2.1880 C   0  0  0  0  0  0  0  0  0  0  0  0
    4.4530   -0.4640    1.5000 C   0  0  0  0  0  0  0  0  0  0  0  0
    2.8930   -1.4720   -1.1560 N   0  0  0  0  0  0  0  0  0  0  0  0
    1.6950   -1.8430   -1.5820 N   0  0  0  0  0  0  0  0  0  0  0  0
   -1.4970   -0.3400   -0.3870 N   0  0  0  0  0  0  0  0  0  0  0  0
   -2.8390   -0.3860   -0.5170 C   0  0  0  0  0  0  0  0  0  0  0  0
   -3.6750    0.4430    0.2020 C   0  0  0  0  0  0  0  0  0  0  0  0
   -3.1790    1.2750    1.0120 O   0  0  0  0  0  0  0  0  0  0  0  0
  1  2  1  0
  2  3  1  0
  2 23  1  0
  3  4  2  0
  4  5  1  0
  5  6  2  0
  5 22  1  0
  6  7  1  0
  7  8  2  0
  8  9  1  0
  8 21  1  0
  9 10  2  0
  9 20  1  0
 10 11  1  0
 11 12  1  0
 11 19  1  0
 12 13  2  0
 12 18  1  0
 13 14  1  0
 14 15  2  0
 15 16  1  0
 15 17  1  0
 17 18  2  0
 19 20  2  0
 21 22  2  0
 22 23  1  0
 23 24  2  0
M  END
