
     RDKit          3D

 21 21  0  0  0  0  0  0  0  0999 V2000
   -5.6810    2.6710   -0.0870 C   0  0  0  0  0  0  0  0  0  0  0  0
   -5.1410    1.4360    0.6420 C   0  0  0  0  0  0  0  0  0  0  0  0
   -3.8640    1.1600    0.0590 O   0  0  0  0  0  0  0  0  0  0  0  0
   -3.0000    0.2070    0.5130 C   0  0  0  0  0  0  0  0  0  0  0  0
   -3.2700   -0.5050    1.4860 O   0  0  0  0  0  0  0  0  0  0  0  0
   -1.7310    0.0320   -0.1450 N   0  0  0  0  0  0  0  0  0  0  0  0
   -0.7870   -0.9240    0.3460 C   0  0  1  0  0  0  0  0  0  0  0  0
   -0.3750   -0.7990    1.7750 C   0  0  0  0  0  0  0  0  0  0  0  0
   -1.2250   -2.3520    0.0570 C   0  0  0  0  0  0  0  0  0  0  0  0
   -1.4020   -2.6670   -1.3810 C   0  0  0  0  0  0  0  0  0  0  0  0
    0.4770   -0.6580   -0.4530 C   0  0  0  0  0  0  0  0  0  0  0  0
    1.0580   -1.5120   -1.1360 O   0  0  0  0  0  0  0  0  0  0  0  0
    0.9320    0.6980   -0.3520 N   0  0  0  0  0  0  0  0  0  0  0  0
    2.1330    1.1160   -1.0290 C   0  0  0  0  0  0  0  0  0  0  0  0
    3.3610    0.5910   -0.4080 C   0  0  0  0  0  0  0  0  0  0  0  0
    3.3330   -0.1360    0.6790 C   0  0  0  0  0  0  0  0  0  0  0  0
    4.5750   -0.6690    1.3390 C   0  0  0  0  0  0  0  0  0  0  0  0
    5.7360   -0.2530    0.6950 O   0  0  0  0  0  0  0  0  0  0  0  0
    5.7700    0.5140   -0.4610 C   0  0  0  0  0  0  0  0  0  0  0  0
    4.6400    0.9320   -1.0130 C   0  0  0  0  0  0  0  0  0  0  0  0
    4.6650    1.6990   -2.1780 O   0  0  0  0  0  0  0  0  0  0  0  0
  1  2  1  0
  2  3  1  0
  3  4  1  0
  4  5  2  0
  4  6  1  0
  6  7  1  0
  7  8  1  1
  7  9  1  0
  7 11  1  0
  9 10  1  0
 11 12  2  0
 11 13  1  0
 13 14  1  0
 14 15  1  0
 15 16  2  0
 15 20  1  0
 16 17  1  0
 17 18  1  0
 18 19  1  0
 19 20  2  0
 20 21  1  0
M  END
