
     RDKit          3D

 21 21  0  0  0  0  0  0  0  0999 V2000
    5.7030    2.1660   -0.9500 C   0  0  0  0  0  0  0  0  0  0  0  0
    5.3120    1.1240   -0.0180 N   0  0  0  0  0  0  0  0  0  0  0  0
    3.9610    0.9940    0.4490 C   0  0  0  0  0  0  0  0  0  0  0  0
    3.1040    1.8160    0.0280 O   0  0  0  0  0  0  0  0  0  0  0  0
    3.5820   -0.0270    1.3610 N   0  0  0  0  0  0  0  0  0  0  0  0
    2.2230   -0.1770    1.8450 C   0  0  0  0  0  0  0  0  0  0  0  0
    1.2370   -0.4270    0.7020 C   0  0  1  0  0  0  0  0  0  0  0  0
    1.5580   -1.8010    0.1070 C   0  0  0  0  0  0  0  0  0  0  0  0
    2.8080   -1.7870   -0.5230 O   0  0  0  0  0  0  0  0  0  0  0  0
    3.0100   -3.0670   -1.0270 C   0  0  0  0  0  0  0  0  0  0  0  0
   -0.0120   -0.5510    1.2970 O   0  0  0  0  0  0  0  0  0  0  0  0
   -0.9770    0.2880    0.8120 C   0  0  0  0  0  0  0  0  0  0  0  0
   -1.2130    0.0490   -0.6510 C   0  0  0  0  0  0  0  0  0  0  0  0
   -2.2240    0.9580   -1.0640 O   0  0  0  0  0  0  0  0  0  0  0  0
   -3.4640    0.8730   -0.4410 C   0  0  0  0  0  0  0  0  0  0  0  0
   -3.8110    1.4780    0.6770 C   0  0  0  0  0  0  0  0  0  0  0  0
   -5.2090    1.1160    0.9790 C   0  0  1  0  0  0  0  0  0  0  0  0
   -5.9820    2.2810    0.8950 O   0  0  0  0  0  0  0  0  0  0  0  0
   -5.6160    0.2240   -0.1120 C   0  0  0  0  0  0  0  0  0  0  0  0
   -4.5920    0.0940   -0.9270 C   0  0  0  0  0  0  0  0  0  0  0  0
   -4.5580   -0.7280   -2.1800 C   0  0  0  0  0  0  0  0  0  0  0  0
  1  2  1  0
  2  3  1  0
  3  4  2  0
  3  5  1  0
  5  6  1  0
  7  6  1  1
  7  8  1  0
  7 11  1  0
  8  9  1  0
  9 10  1  0
 11 12  1  0
 12 13  1  0
 13 14  1  0
 14 15  1  0
 15 16  2  0
 15 20  1  0
 16 17  1  0
 17 18  1  6
 17 19  1  0
 19 20  2  0
 20 21  1  0
M  END
