
     RDKit          3D

 21 21  0  0  0  0  0  0  0  0999 V2000
   -3.2860    2.7660   -0.2260 C   0  0  0  0  0  0  0  0  0  0  0  0
   -3.1020    1.4220   -0.1670 C   0  0  0  0  0  0  0  0  0  0  0  0
   -3.8180    0.6580   -1.1030 C   0  0  0  0  0  0  0  0  0  0  0  0
   -4.4150   -0.0660   -1.9000 C   0  0  0  0  0  0  0  0  0  0  0  0
   -5.4530    0.5800   -2.8960 C   0  0  0  0  0  0  0  0  0  0  0  0
   -2.5420   -0.5810   -1.0440 C   0  0  0  0  0  0  0  0  0  0  0  0
   -1.5180   -0.4510   -0.3950 C   0  0  0  0  0  0  0  0  0  0  0  0
   -0.6140   -1.8570   -0.5940 C   0  0  0  0  0  0  0  0  0  0  0  0
   -0.3530   -2.0250    0.8570 C   0  0  0  0  0  0  0  0  0  0  0  0
   -0.5730   -3.0420    1.5440 O   0  0  0  0  0  0  0  0  0  0  0  0
    0.1920   -0.7690    1.2610 N   0  0  0  0  0  0  0  0  0  0  0  0
    1.2170   -0.5270    2.2290 C   0  0  0  0  0  0  0  0  0  0  0  0
    2.5960   -0.5250    1.5830 C   0  0  2  0  0  0  0  0  0  0  0  0
    2.7830   -1.7880    1.0000 O   0  0  0  0  0  0  0  0  0  0  0  0
    3.6240   -0.1890    2.5990 C   0  0  0  0  0  0  0  0  0  0  0  0
    4.9380   -0.1380    2.0710 O   0  0  0  0  0  0  0  0  0  0  0  0
    5.2650    0.7590    1.0430 C   0  0  0  0  0  0  0  0  0  0  0  0
    6.6050    0.6920    0.6000 N   0  0  0  0  0  0  0  0  0  0  0  0
    4.3920    1.5000    0.6230 O   0  0  0  0  0  0  0  0  0  0  0  0
   -0.5480    0.1440    0.4570 C   0  0  0  0  0  0  0  0  0  0  0  0
   -0.3680    1.4280    0.4770 O   0  0  0  0  0  0  0  0  0  0  0  0
  1  2  2  0
  2  3  1  0
  3  4  2  3
  3  6  1  0
  4  5  1  0
  6  7  2  3
  7  8  1  0
  7 20  1  0
  8  9  1  0
  9 10  2  0
  9 11  1  0
 11 12  1  0
 11 20  1  0
 12 13  1  0
 13 14  1  1
 13 15  1  0
 15 16  1  0
 16 17  1  0
 17 18  1  0
 17 19  2  0
 20 21  2  0
M  END
