
     RDKit          3D

 25 26  0  0  0  0  0  0  0  0999 V2000
    5.8370    0.2310   -1.2480 C   0  0  0  0  0  0  0  0  0  0  0  0
    4.8960   -0.6930   -0.4740 C   0  0  2  0  0  0  0  0  0  0  0  0
    3.7110    0.0790   -0.1340 N   0  0  0  0  0  0  0  0  0  0  0  0
    2.4110   -0.3130   -0.5400 C   0  0  0  0  0  0  0  0  0  0  0  0
    2.3120   -1.3680   -1.2160 O   0  0  0  0  0  0  0  0  0  0  0  0
    1.1980    0.4400   -0.2150 C   0  0  2  0  0  0  0  0  0  0  0  0
    0.9640    0.5870    1.2700 C   0  0  0  0  0  0  0  0  0  0  0  0
    0.0560   -0.1950   -0.7550 O   0  0  0  0  0  0  0  0  0  0  0  0
   -1.1810    0.4040   -0.5310 C   0  0  0  0  0  0  0  0  0  0  0  0
   -1.2190    1.7720   -0.6240 O   0  0  0  0  0  0  0  0  0  0  0  0
   -2.2570   -0.3060   -0.2440 C   0  0  0  0  0  0  0  0  0  0  0  0
   -2.1270   -1.7860   -0.1630 C   0  0  0  0  0  0  0  0  0  0  0  0
   -1.0030   -2.2950   -0.3690 O   0  0  0  0  0  0  0  0  0  0  0  0
   -3.2890   -2.5250    0.1450 N   0  0  0  0  0  0  0  0  0  0  0  0
   -4.5340   -1.8800    0.3670 C   0  0  0  0  0  0  0  0  0  0  0  0
   -5.5580   -2.5860    0.6420 O   0  0  0  0  0  0  0  0  0  0  0  0
   -4.6370   -0.4210    0.2810 C   0  0  0  0  0  0  0  0  0  0  0  0
   -3.5600    0.2910   -0.0060 C   0  0  0  0  0  0  0  0  0  0  0  0
   -3.6840    1.7730   -0.0890 C   0  0  0  0  0  0  0  0  0  0  0  0
   -5.0690    2.2520    0.2420 C   0  0  0  0  0  0  0  0  0  0  0  0
   -5.7190    1.4270    1.1480 O   0  0  0  0  0  0  0  0  0  0  0  0
   -5.9830    0.1940    0.5280 C   0  0  0  0  0  0  0  0  0  0  0  0
    5.5900   -1.0660    0.7830 C   0  0  0  0  0  0  0  0  0  0  0  0
    6.7850   -1.8290    0.7000 N   0  0  0  0  0  0  0  0  0  0  0  0
    5.1850   -0.7460    1.9280 O   0  0  0  0  0  0  0  0  0  0  0  0
  2  1  1  6
  2  3  1  0
  2 23  1  0
  3  4  1  0
  4  5  2  0
  4  6  1  0
  6  7  1  1
  6  8  1  0
  8  9  1  0
  9 10  1  0
  9 11  2  3
 11 12  1  0
 11 18  1  0
 12 13  2  0
 12 14  1  0
 14 15  1  0
 15 16  2  0
 15 17  1  0
 17 18  2  0
 17 22  1  0
 18 19  1  0
 19 20  1  0
 20 21  1  0
 21 22  1  0
 23 24  1  0
 23 25  2  0
M  END
