
     RDKit          3D

 25 26  0  0  0  0  0  0  0  0999 V2000
   -4.8090    2.5910   -2.3550 C   0  0  0  0  0  0  0  0  0  0  0  0
   -5.2280    1.3610   -1.6060 C   0  0  0  0  0  0  0  0  0  0  0  0
   -4.4300    0.5520   -0.9280 C   0  0  0  0  0  0  0  0  0  0  0  0
   -2.9950    0.7480   -0.8100 C   0  0  0  0  0  0  0  0  0  0  0  0
   -2.4280    1.7420   -1.3760 O   0  0  0  0  0  0  0  0  0  0  0  0
   -2.1560   -0.0910   -0.1040 O   0  0  0  0  0  0  0  0  0  0  0  0
   -0.7810    0.0270    0.0530 C   0  0  0  0  0  0  0  0  0  0  0  0
   -0.0030   -0.0230   -1.2300 C   0  0  0  0  0  0  0  0  0  0  0  0
    1.3540    0.0940   -1.0830 O   0  0  0  0  0  0  0  0  0  0  0  0
    1.9640   -0.8680   -0.3260 C   0  0  0  0  0  0  0  0  0  0  0  0
    3.4450   -0.5550   -0.3000 C   0  0  2  0  0  0  0  0  0  0  0  0
    4.1940   -1.5130    0.4770 N   0  0  0  0  0  0  0  0  0  0  0  0
    5.4630   -1.1820    1.0150 C   0  0  0  0  0  0  0  0  0  0  0  0
    6.0450   -2.0460    1.7200 O   0  0  0  0  0  0  0  0  0  0  0  0
    6.0970    0.1580    0.7530 C   0  0  2  0  0  0  0  0  0  0  0  0
    6.7640    0.5660    2.0500 C   0  0  0  0  0  0  0  0  0  0  0  0
    5.0790    1.1500    0.4590 N   0  0  0  0  0  0  0  0  0  0  0  0
    3.7230    0.7840    0.2370 C   0  0  0  0  0  0  0  0  0  0  0  0
    2.7980    1.6210    0.5080 O   0  0  0  0  0  0  0  0  0  0  0  0
   -5.2270   -0.5050   -0.3590 C   0  0  0  0  0  0  0  0  0  0  0  0
   -4.8000   -1.4950    0.3760 C   0  0  0  0  0  0  0  0  0  0  0  0
   -5.7140   -2.4540    0.8590 N   0  0  0  0  0  0  0  0  0  0  0  0
   -6.6190   -0.2430   -0.7750 C   0  0  0  0  0  0  0  0  0  0  0  0
   -7.6010   -0.9610   -0.4650 O   0  0  0  0  0  0  0  0  0  0  0  0
   -6.5400    0.9150   -1.5350 O   0  0  0  0  0  0  0  0  0  0  0  0
  1  2  1  0
  2  3  2  0
  2 25  1  0
  3  4  1  0
  3 20  1  0
  4  5  2  0
  4  6  1  0
  6  7  1  0
  7  8  1  0
  8  9  1  0
  9 10  1  0
 11 10  1  1
 11 12  1  0
 11 18  1  0
 12 13  1  0
 13 14  2  0
 13 15  1  0
 15 16  1  1
 15 17  1  0
 17 18  1  0
 18 19  2  0
 20 21  2  3
 20 23  1  0
 21 22  1  0
 23 24  2  0
 23 25  1  0
M  END
