
     RDKit          3D

 25 26  0  0  0  0  0  0  0  0999 V2000
    5.9930    3.4830   -0.6030 N   0  0  0  0  0  0  0  0  0  0  0  0
    5.0320    2.4020   -0.6190 C   0  0  0  0  0  0  0  0  0  0  0  0
    4.3470    2.1710   -1.6410 O   0  0  0  0  0  0  0  0  0  0  0  0
    4.8440    1.6010    0.4850 O   0  0  0  0  0  0  0  0  0  0  0  0
    3.9240    0.5190    0.5380 C   0  0  0  0  0  0  0  0  0  0  0  0
    4.2270   -0.5630   -0.4380 C   0  0  0  0  0  0  0  0  0  0  0  0
    3.4660   -1.6250   -0.4690 O   0  0  0  0  0  0  0  0  0  0  0  0
    2.2220   -1.8970   -0.7130 C   0  0  0  0  0  0  0  0  0  0  0  0
    1.1970   -1.3150    0.1910 C   0  0  2  0  0  0  0  0  0  0  0  0
    1.3670   -1.6350    1.5190 O   0  0  0  0  0  0  0  0  0  0  0  0
    1.2340   -2.9650    1.8190 C   0  0  0  0  0  0  0  0  0  0  0  0
   -0.1470   -3.5030    1.5210 C   0  0  0  0  0  0  0  0  0  0  0  0
   -0.4140   -3.2550    0.0530 C   0  0  0  0  0  0  0  0  0  0  0  0
   -0.2220   -1.7870   -0.2160 C   0  0  1  0  0  0  0  0  0  0  0  0
   -1.1400   -1.0080    0.5940 N   0  0  0  0  0  0  0  0  0  0  0  0
   -2.0670   -0.0990   -0.0190 C   0  0  0  0  0  0  0  0  0  0  0  0
   -2.0670    0.0080   -1.2790 O   0  0  0  0  0  0  0  0  0  0  0  0
   -2.9800    0.6810    0.7320 N   0  0  0  0  0  0  0  0  0  0  0  0
   -3.9020    1.5860    0.0920 C   0  0  0  0  0  0  0  0  0  0  0  0
   -3.8080    2.8440    0.4130 C   0  0  0  0  0  0  0  0  0  0  0  0
   -4.6780    3.8810   -0.1570 C   0  0  0  0  0  0  0  0  0  0  0  0
   -5.5970    3.3350   -1.0700 O   0  0  0  0  0  0  0  0  0  0  0  0
   -5.6830    1.9940   -1.4000 C   0  0  0  0  0  0  0  0  0  0  0  0
   -6.6230    1.5500   -2.3130 O   0  0  0  0  0  0  0  0  0  0  0  0
   -4.8660    1.1110   -0.8470 C   0  0  0  0  0  0  0  0  0  0  0  0
  1  2  1  0
  2  3  2  0
  2  4  1  0
  4  5  1  0
  5  6  1  0
  6  7  1  0
  7  8  1  0
  9  8  1  6
  9 10  1  0
  9 14  1  0
 10 11  1  0
 11 12  1  0
 12 13  1  0
 13 14  1  0
 14 15  1  1
 15 16  1  0
 16 17  2  0
 16 18  1  0
 18 19  1  0
 19 20  2  0
 19 25  1  0
 20 21  1  0
 21 22  1  0
 22 23  1  0
 23 24  1  0
 23 25  2  0
M  END
