
     RDKit          3D

 25 26  0  0  0  0  0  0  0  0999 V2000
    7.0970    0.7870   -2.1340 C   0  0  0  0  0  0  0  0  0  0  0  0
    6.5040    0.1630   -1.0060 O   0  0  0  0  0  0  0  0  0  0  0  0
    5.2510    0.5310   -0.5470 C   0  0  0  0  0  0  0  0  0  0  0  0
    4.6550    1.4440   -1.1700 O   0  0  0  0  0  0  0  0  0  0  0  0
    4.6070   -0.1040    0.6300 C   0  0  1  0  0  0  0  0  0  0  0  0
    5.5660    0.0320    1.8060 C   0  0  0  0  0  0  0  0  0  0  0  0
    3.3170    0.4380    0.9170 N   0  0  0  0  0  0  0  0  0  0  0  0
    2.1260   -0.3510    0.9900 C   0  0  0  0  0  0  0  0  0  0  0  0
    2.2470   -1.5700    0.7890 O   0  0  0  0  0  0  0  0  0  0  0  0
    0.8620    0.1830    1.2710 N   0  0  0  0  0  0  0  0  0  0  0  0
   -0.3710   -0.5700    1.3530 C   0  0  0  0  0  0  0  0  0  0  0  0
   -0.6320   -1.2320    0.0340 C   0  0  2  0  0  0  0  0  0  0  0  0
   -0.6910   -0.2460   -1.1080 C   0  0  0  0  0  0  0  0  0  0  0  0
   -1.9000    0.4870   -1.0960 O   0  0  0  0  0  0  0  0  0  0  0  0
   -3.0870   -0.1700   -0.7960 C   0  0  0  0  0  0  0  0  0  0  0  0
   -4.3240    0.3870   -1.0580 C   0  0  0  0  0  0  0  0  0  0  0  0
   -4.3380    1.6420   -1.6370 O   0  0  0  0  0  0  0  0  0  0  0  0
   -4.3480    2.7890   -0.8340 C   0  0  0  0  0  0  0  0  0  0  0  0
   -5.5110   -0.2420   -0.7710 C   0  0  0  0  0  0  0  0  0  0  0  0
   -6.7890    0.3310   -1.0400 N   0  0  0  0  0  0  0  0  0  0  0  0
   -5.4560   -1.4900   -0.1940 C   0  0  0  0  0  0  0  0  0  0  0  0
   -4.2420   -2.0810    0.0820 C   0  0  0  0  0  0  0  0  0  0  0  0
   -4.2230   -3.3400    0.6630 O   0  0  0  0  0  0  0  0  0  0  0  0
   -3.0700   -1.4180   -0.2200 C   0  0  0  0  0  0  0  0  0  0  0  0
   -1.8330   -1.9870    0.0470 O   0  0  0  0  0  0  0  0  0  0  0  0
  1  2  1  0
  2  3  1  0
  3  4  2  0
  3  5  1  0
  5  6  1  1
  5  7  1  0
  7  8  1  0
  8  9  2  0
  8 10  1  0
 10 11  1  0
 12 11  1  1
 12 13  1  0
 12 25  1  0
 13 14  1  0
 14 15  1  0
 15 16  2  0
 15 24  1  0
 16 17  1  0
 16 19  1  0
 17 18  1  0
 19 20  1  0
 19 21  2  0
 21 22  1  0
 22 23  1  0
 22 24  2  0
 24 25  1  0
M  END
