
     RDKit          3D

 17 17  0  0  0  0  0  0  0  0999 V2000
   -1.9240   -2.8260    1.7050 C   0  0  0  0  0  0  0  0  0  0  0  0
   -1.1710   -2.0120    1.0090 C   0  0  0  0  0  0  0  0  0  0  0  0
    0.1810   -2.3020    0.7760 O   0  0  0  0  0  0  0  0  0  0  0  0
    0.9930   -1.4680    0.0510 C   0  0  0  0  0  0  0  0  0  0  0  0
    2.0160   -1.8780   -0.5850 O   0  0  0  0  0  0  0  0  0  0  0  0
    0.6180   -0.0070    0.0350 C   0  0  1  0  0  0  0  0  0  0  0  0
    0.7800    0.5310    1.3110 O   0  0  0  0  0  0  0  0  0  0  0  0
    1.3860    0.7340   -0.9200 N   0  0  0  0  0  0  0  0  0  0  0  0
    2.7950    0.8220   -0.8610 C   0  0  0  0  0  0  0  0  0  0  0  0
    3.4500    0.2340    0.0650 O   0  0  0  0  0  0  0  0  0  0  0  0
    3.5350    1.5390   -1.7860 O   0  0  0  0  0  0  0  0  0  0  0  0
    4.9560    1.6170   -1.7100 C   0  0  0  0  0  0  0  0  0  0  0  0
   -0.7940    0.0660   -0.3140 N   0  0  0  0  0  0  0  0  0  0  0  0
   -1.6810   -0.7600    0.4310 C   0  0  0  0  0  0  0  0  0  0  0  0
   -2.9210   -0.3940    0.5830 C   0  0  0  0  0  0  0  0  0  0  0  0
   -3.4960    0.8450    0.0340 C   0  0  0  0  0  0  0  0  0  0  0  0
   -4.5590    0.5680   -0.8530 O   0  0  0  0  0  0  0  0  0  0  0  0
  1  2  2  0
  2  3  1  0
  2 14  1  0
  3  4  1  0
  4  5  2  0
  4  6  1  0
  6  7  1  1
  6  8  1  0
  6 13  1  0
  8  9  1  0
  9 10  2  0
  9 11  1  0
 11 12  1  0
 13 14  1  0
 14 15  2  3
 15 16  1  0
 16 17  1  0
M  END
