
     RDKit          3D

 16 17  0  0  0  0  0  0  0  0999 V2000
   -3.6330   -0.4910   -0.1790 C   0  0  0  0  0  0  0  0  0  0  0  0
   -2.6800    0.4110   -0.8700 C   0  0  1  0  0  0  0  0  0  0  0  0
   -2.1770    1.4350   -0.0870 O   0  0  0  0  0  0  0  0  0  0  0  0
   -1.4990    1.0290    1.0270 C   0  0  0  0  0  0  0  0  0  0  0  0
   -0.4700   -0.0660    0.7420 C   0  0  2  0  0  0  0  0  0  0  0  0
   -1.1030   -1.2590    1.1720 O   0  0  0  0  0  0  0  0  0  0  0  0
    0.7120    0.0940    1.5590 C   0  0  0  0  0  0  0  0  0  0  0  0
    0.4720   -0.0920    2.8050 O   0  0  0  0  0  0  0  0  0  0  0  0
    2.0500    0.4130    1.2180 N   0  0  0  0  0  0  0  0  0  0  0  0
    2.7310    0.1700   -0.0110 C   0  0  0  0  0  0  0  0  0  0  0  0
    4.1530    0.2050    0.0270 N   0  0  0  0  0  0  0  0  0  0  0  0
    2.1350   -0.0800   -1.1640 C   0  0  0  0  0  0  0  0  0  0  0  0
    3.0200   -0.2810   -2.2100 O   0  0  0  0  0  0  0  0  0  0  0  0
    0.7230   -0.1760   -1.4980 C   0  0  0  0  0  0  0  0  0  0  0  0
   -0.3260   -0.1670   -0.6960 C   0  0  0  0  0  0  0  0  0  0  0  0
   -1.5430   -0.2810   -1.4100 O   0  0  0  0  0  0  0  0  0  0  0  0
  2  1  1  1
  2  3  1  0
  2 16  1  0
  3  4  1  0
  4  5  1  0
  5  6  1  1
  5  7  1  0
  5 15  1  0
  7  8  2  0
  7  9  1  0
  9 10  1  0
 10 11  1  0
 10 12  2  0
 12 13  1  0
 12 14  1  0
 14 15  2  0
 15 16  1  0
M  END
