
     RDKit          3D

 16 16  0  0  0  0  0  0  0  0999 V2000
   -2.7570   -0.9480    0.5410 N   0  0  0  0  0  0  0  0  0  0  0  0
   -1.4430   -0.8120    0.0740 C   0  0  0  0  0  0  0  0  0  0  0  0
   -1.0480   -1.6950   -0.8720 C   0  0  0  0  0  0  0  0  0  0  0  0
   -2.0200   -2.6200   -1.2460 O   0  0  0  0  0  0  0  0  0  0  0  0
    0.2250   -1.7700   -1.5020 N   0  0  0  0  0  0  0  0  0  0  0  0
    1.3050   -0.7550   -1.3320 C   0  0  0  0  0  0  0  0  0  0  0  0
    1.6490   -0.6960    0.1040 C   0  0  1  0  0  0  0  0  0  0  0  0
    3.0340   -0.2600    0.4200 C   0  0  0  0  0  0  0  0  0  0  0  0
    3.3510    1.0640    0.2330 O   0  0  0  0  0  0  0  0  0  0  0  0
    3.4500    1.8180   -0.8720 C   0  0  0  0  0  0  0  0  0  0  0  0
    3.2550    1.3420   -1.9960 O   0  0  0  0  0  0  0  0  0  0  0  0
    0.7460    0.0960    0.8910 O   0  0  0  0  0  0  0  0  0  0  0  0
   -0.6510    0.2510    0.6640 C   0  0  0  0  0  0  0  0  0  0  0  0
   -1.2230    1.3720    0.9930 C   0  0  0  0  0  0  0  0  0  0  0  0
   -2.6070    1.7970    0.8680 C   0  0  0  0  0  0  0  0  0  0  0  0
   -3.1290    2.0930    2.1310 O   0  0  0  0  0  0  0  0  0  0  0  0
  1  2  1  0
  2  3  2  0
  2 13  1  0
  3  4  1  0
  3  5  1  0
  5  6  1  0
  6  7  1  0
  7  8  1  6
  7 12  1  0
  8  9  1  0
  9 10  1  0
 10 11  2  0
 12 13  1  0
 13 14  2  3
 14 15  1  0
 15 16  1  0
M  END
