
     RDKit          3D

 16 16  0  0  0  0  0  0  0  0999 V2000
   -1.0070   -1.9750   -0.9940 C   0  0  0  0  0  0  0  0  0  0  0  0
   -1.4170   -0.5900   -0.5410 C   0  0  1  0  0  0  0  0  0  0  0  0
   -1.7690   -0.4790    0.7640 O   0  0  0  0  0  0  0  0  0  0  0  0
   -3.0550   -0.1500    1.0630 C   0  0  0  0  0  0  0  0  0  0  0  0
   -3.5080    1.1860    0.5240 C   0  0  0  0  0  0  0  0  0  0  0  0
   -4.8480    1.4390    0.8830 O   0  0  0  0  0  0  0  0  0  0  0  0
   -0.4430    0.3040   -0.9530 O   0  0  0  0  0  0  0  0  0  0  0  0
    0.8780    0.3780   -0.6830 C   0  0  0  0  0  0  0  0  0  0  0  0
    1.6790    0.9870   -1.5630 C   0  0  0  0  0  0  0  0  0  0  0  0
    3.1240    1.1540   -1.4270 C   0  0  2  0  0  0  0  0  0  0  0  0
    3.8080    0.6310   -2.5300 O   0  0  0  0  0  0  0  0  0  0  0  0
    3.6510    0.5920   -0.2240 N   0  0  0  0  0  0  0  0  0  0  0  0
    2.8130   -0.0590    0.7230 C   0  0  0  0  0  0  0  0  0  0  0  0
    3.3510   -0.6050    1.9000 O   0  0  0  0  0  0  0  0  0  0  0  0
    1.5040   -0.1630    0.5120 C   0  0  0  0  0  0  0  0  0  0  0  0
    0.7490   -0.8360    1.5250 N   0  0  0  0  0  0  0  0  0  0  0  0
  2  1  1  1
  2  3  1  0
  2  7  1  0
  3  4  1  0
  4  5  1  0
  5  6  1  0
  7  8  1  0
  8  9  2  0
  8 15  1  0
  9 10  1  0
 10 11  1  6
 10 12  1  0
 12 13  1  0
 13 14  1  0
 13 15  2  0
 15 16  1  0
M  END
