
     RDKit          3D

 34 37  0  0  0  0  0  0  0  0999 V2000
   10.8120    0.9520    1.2240 C   0  0  0  0  0  0  0  0  0  0  0  0
   10.8720   -0.4300    1.0700 O   0  0  0  0  0  0  0  0  0  0  0  0
    9.9850   -1.0060    1.9710 C   0  0  0  0  0  0  0  0  0  0  0  0
    8.6220   -0.4880    1.6460 C   0  0  0  0  0  0  0  0  0  0  0  0
    7.8580   -1.0610    0.7110 N   0  0  0  0  0  0  0  0  0  0  0  0
    6.6610   -0.4110    0.6020 C   0  0  0  0  0  0  0  0  0  0  0  0
    5.5780   -0.7460   -0.3060 C   0  0  0  0  0  0  0  0  0  0  0  0
    5.7660   -1.7560   -1.0690 O   0  0  0  0  0  0  0  0  0  0  0  0
    4.3570   -0.0390   -0.3920 N   0  0  0  0  0  0  0  0  0  0  0  0
    3.3720   -0.4940   -1.3460 C   0  0  2  0  0  0  0  0  0  0  0  0
    3.0490    0.5700   -2.3850 C   0  0  0  0  0  0  0  0  0  0  0  0
    1.8170   -0.0670   -3.0400 C   0  0  0  0  0  0  0  0  0  0  0  0
    1.1360   -0.8450   -1.9590 C   0  0  2  0  0  0  0  0  0  0  0  0
   -0.1950   -0.3580   -1.6680 N   0  0  0  0  0  0  0  0  0  0  0  0
   -1.3570   -1.1450   -1.7530 C   0  0  0  0  0  0  0  0  0  0  0  0
   -1.2810   -2.3330   -2.0940 O   0  0  0  0  0  0  0  0  0  0  0  0
   -2.7220   -0.5890   -1.4400 C   0  0  0  0  0  0  0  0  0  0  0  0
   -3.7790   -1.6290   -1.6020 C   0  0  0  0  0  0  0  0  0  0  0  0
   -5.0690   -1.0610   -1.2940 N   0  0  0  0  0  0  0  0  0  0  0  0
   -5.3190   -0.5520   -0.0070 C   0  0  0  0  0  0  0  0  0  0  0  0
   -4.4440   -0.5880    0.8730 O   0  0  0  0  0  0  0  0  0  0  0  0
   -6.6250    0.0380    0.3320 C   0  0  0  0  0  0  0  0  0  0  0  0
   -7.6450    0.1480   -0.4810 O   0  0  0  0  0  0  0  0  0  0  0  0
   -8.6490    0.7180    0.1360 C   0  0  0  0  0  0  0  0  0  0  0  0
   -8.2660    1.0010    1.4370 C   0  0  0  0  0  0  0  0  0  0  0  0
   -6.9830    0.5670    1.5520 C   0  0  0  0  0  0  0  0  0  0  0  0
   -6.1330    0.6490    2.7630 C   0  0  0  0  0  0  0  0  0  0  0  0
   -9.3920    1.6390    2.1270 C   0  0  0  0  0  0  0  0  0  0  0  0
  -10.5400    1.4420    1.2790 N   0  0  0  0  0  0  0  0  0  0  0  0
  -10.0310    1.1650   -0.0500 C   0  0  0  0  0  0  0  0  0  0  0  0
    2.0370   -0.7720   -0.7380 C   0  0  0  0  0  0  0  0  0  0  0  0
    6.7580    0.5930    1.5370 C   0  0  0  0  0  0  0  0  0  0  0  0
    5.5670    1.8010    1.9210 Cl  0  0  0  0  0  0  0  0  0  0  0  0
    7.9600    0.5340    2.1670 N   0  0  0  0  0  0  0  0  0  0  0  0
  1  2  1  0
  2  3  1  0
  3  4  1  0
  4  5  2  0
  4 34  1  0
  5  6  1  0
  6  7  1  0
  6 32  2  0
  7  8  2  0
  7  9  1  0
 10  9  1  1
 10 11  1  0
 10 31  1  0
 11 12  1  0
 12 13  1  0
 13 14  1  1
 13 31  1  0
 14 15  1  0
 15 16  2  0
 15 17  1  0
 17 18  1  0
 18 19  1  0
 19 20  1  0
 20 21  2  0
 20 22  1  0
 22 23  1  0
 22 26  2  0
 23 24  1  0
 24 25  2  0
 24 30  1  0
 25 26  1  0
 25 28  1  0
 26 27  1  0
 28 29  1  0
 29 30  1  0
 32 33  1  0
 32 34  1  0
M  END
