
     RDKit          3D

 46 50  0  0  0  0  0  0  0  0999 V2000
    9.9920   -4.3740   -3.7580 C   0  0  0  0  0  0  0  0  0  0  0  0
    9.5860   -3.1920   -3.0750 O   0  0  0  0  0  0  0  0  0  0  0  0
    8.3490   -3.1620   -2.4270 C   0  0  0  0  0  0  0  0  0  0  0  0
    7.6470   -4.1940   -2.4790 O   0  0  0  0  0  0  0  0  0  0  0  0
    7.8800   -1.9940   -1.7170 C   0  0  0  0  0  0  0  0  0  0  0  0
    8.5030   -0.7780   -1.5460 C   0  0  0  0  0  0  0  0  0  0  0  0
    7.6880   -0.0310   -0.8310 O   0  0  0  0  0  0  0  0  0  0  0  0
    6.5990   -0.6690   -0.5330 C   0  0  0  0  0  0  0  0  0  0  0  0
    5.4720   -0.1610    0.2460 C   0  0  0  0  0  0  0  0  0  0  0  0
    5.4680    1.1130    0.7630 C   0  0  0  0  0  0  0  0  0  0  0  0
    4.4270    1.6270    1.5170 C   0  0  0  0  0  0  0  0  0  0  0  0
    3.3220    0.8260    1.7730 C   0  0  0  0  0  0  0  0  0  0  0  0
    2.0150    1.3880    2.7440 S   0  0  1  0  0  0  0  0  0  0  0  0
    1.4700    0.2530    3.6070 O   0  0  0  0  0  0  0  0  0  0  0  0
    2.6260    2.3490    3.7750 O   0  0  0  0  0  0  0  0  0  0  0  0
    0.7300    2.1730    1.9140 N   0  0  0  0  0  0  0  0  0  0  0  0
    1.2170    3.3500    1.2530 C   0  0  0  0  0  0  0  0  0  0  0  0
    1.2160    3.2720   -0.2480 C   0  0  1  0  0  0  0  0  0  0  0  0
    1.7660    4.5120   -0.8940 C   0  0  0  0  0  0  0  0  0  0  0  0
    1.7760    1.9910   -0.7820 C   0  0  0  0  0  0  0  0  0  0  0  0
   -0.2900    2.4610    2.9360 C   0  0  0  0  0  0  0  0  0  0  0  0
   -1.3090    1.3840    3.0310 C   0  0  1  0  0  0  0  0  0  0  0  0
   -2.1830    1.7150    4.1120 O   0  0  0  0  0  0  0  0  0  0  0  0
   -2.2180    1.2820    1.7960 C   0  0  2  0  0  0  0  0  0  0  0  0
   -2.8450    2.6260    1.4950 C   0  0  0  0  0  0  0  0  0  0  0  0
   -3.7330    2.4550    0.3170 C   0  0  0  0  0  0  0  0  0  0  0  0
   -3.2100    2.6410   -0.9370 C   0  0  0  0  0  0  0  0  0  0  0  0
   -3.9780    2.5100   -2.1070 C   0  0  0  0  0  0  0  0  0  0  0  0
   -5.3050    2.1810   -1.9610 C   0  0  0  0  0  0  0  0  0  0  0  0
   -5.8290    1.9940   -0.6760 C   0  0  0  0  0  0  0  0  0  0  0  0
   -5.0660    2.1250    0.4550 C   0  0  0  0  0  0  0  0  0  0  0  0
   -3.1770    0.2350    1.9340 N   0  0  0  0  0  0  0  0  0  0  0  0
   -3.3600   -0.7370    0.9170 C   0  0  0  0  0  0  0  0  0  0  0  0
   -2.6750   -0.6630   -0.1030 O   0  0  0  0  0  0  0  0  0  0  0  0
   -4.2440   -1.7840    0.9390 O   0  0  0  0  0  0  0  0  0  0  0  0
   -4.3860   -2.6760   -0.0600 C   0  0  1  0  0  0  0  0  0  0  0  0
   -4.0870   -4.1150    0.2340 C   0  0  0  0  0  0  0  0  0  0  0  0
   -4.8050   -4.8630   -0.6860 O   0  0  0  0  0  0  0  0  0  0  0  0
   -5.3210   -3.9940   -1.6370 C   0  0  1  0  0  0  0  0  0  0  0  0
   -6.5710   -4.3900   -2.0640 O   0  0  0  0  0  0  0  0  0  0  0  0
   -7.2260   -4.6200   -0.8550 C   0  0  0  0  0  0  0  0  0  0  0  0
   -6.7540   -3.5270    0.0860 C   0  0  0  0  0  0  0  0  0  0  0  0
   -5.7140   -2.8050   -0.7360 C   0  0  1  0  0  0  0  0  0  0  0  0
    3.3260   -0.4470    1.2560 C   0  0  0  0  0  0  0  0  0  0  0  0
    4.3700   -0.9520    0.5040 C   0  0  0  0  0  0  0  0  0  0  0  0
    6.6960   -1.8930   -1.0740 N   0  0  0  0  0  0  0  0  0  0  0  0
  1  2  1  0
  2  3  1  0
  3  4  2  0
  3  5  1  0
  5  6  2  0
  5 46  1  0
  6  7  1  0
  7  8  1  0
  8  9  1  0
  8 46  2  0
  9 10  2  0
  9 45  1  0
 10 11  1  0
 11 12  2  0
 12 13  1  0
 12 44  1  0
 13 14  2  0
 13 15  2  0
 13 16  1  6
 16 17  1  0
 16 21  1  0
 17 18  1  0
 18 19  1  6
 18 20  1  0
 21 22  1  0
 22 23  1  1
 22 24  1  0
 24 25  1  1
 24 32  1  0
 25 26  1  0
 26 27  2  0
 26 31  1  0
 27 28  1  0
 28 29  2  0
 29 30  1  0
 30 31  2  0
 32 33  1  0
 33 34  2  0
 33 35  1  0
 36 35  1  1
 36 37  1  0
 36 43  1  0
 37 38  1  0
 39 38  1  1
 39 40  1  0
 39 43  1  0
 40 41  1  0
 41 42  1  0
 43 42  1  1
 44 45  2  0
M  END
