
     RDKit          3D

 34 36  0  0  0  0  0  0  0  0999 V2000
    8.5530    0.0160    3.5310 C   0  0  0  0  0  0  0  0  0  0  0  0
    7.2100    0.4460    3.6510 O   0  0  0  0  0  0  0  0  0  0  0  0
    6.4150    0.6370    2.5110 C   0  0  0  0  0  0  0  0  0  0  0  0
    5.1120    1.0530    2.6280 C   0  0  0  0  0  0  0  0  0  0  0  0
    4.2780    1.2590    1.5540 C   0  0  0  0  0  0  0  0  0  0  0  0
    4.7630    1.0400    0.2860 C   0  0  0  0  0  0  0  0  0  0  0  0
    3.9590    1.2330   -0.8480 O   0  0  0  0  0  0  0  0  0  0  0  0
    2.6410    1.6590   -0.6430 C   0  0  0  0  0  0  0  0  0  0  0  0
    1.9000    1.8210   -1.9680 C   0  0  0  0  0  0  0  0  0  0  0  0
    1.8760    0.5740   -2.6450 N   0  0  0  0  0  0  0  0  0  0  0  0
    2.8790    0.1730   -3.5950 C   0  0  0  0  0  0  0  0  0  0  0  0
    4.0400    0.5620   -3.4330 O   0  0  0  0  0  0  0  0  0  0  0  0
    2.5140   -0.6910   -4.7430 C   0  0  0  0  0  0  0  0  0  0  0  0
    1.2540   -1.3790   -4.5190 N   0  0  0  0  0  0  0  0  0  0  0  0
    1.1450   -1.6800   -3.0940 C   0  0  2  0  0  0  0  0  0  0  0  0
    0.3700   -2.8940   -2.8070 C   0  0  0  0  0  0  0  0  0  0  0  0
    0.8340   -0.4270   -2.4230 C   0  0  0  0  0  0  0  0  0  0  0  0
   -0.1840   -0.0780   -1.6840 C   0  0  0  0  0  0  0  0  0  0  0  0
   -1.3120   -0.8230   -1.3130 N   0  0  0  0  0  0  0  0  0  0  0  0
   -2.3460   -0.2690   -0.4810 C   0  0  0  0  0  0  0  0  0  0  0  0
   -2.2710    0.8980   -0.0630 O   0  0  0  0  0  0  0  0  0  0  0  0
   -3.4740   -1.0350   -0.1170 N   0  0  0  0  0  0  0  0  0  0  0  0
   -4.5500   -0.5930    0.6990 C   0  0  2  0  0  0  0  0  0  0  0  0
   -5.5550   -1.7250    0.8230 C   0  0  0  0  0  0  0  0  0  0  0  0
   -5.2550    0.5460   -0.0410 C   0  0  0  0  0  0  0  0  0  0  0  0
   -6.4650    1.0320    0.7100 C   0  0  0  0  0  0  0  0  0  0  0  0
   -6.5360    0.6840    2.0600 N   0  0  0  0  0  0  0  0  0  0  0  0
   -5.3630    0.4370    2.7830 C   0  0  1  0  0  0  0  0  0  0  0  0
   -5.6780   -0.4920    3.8810 N   0  0  0  0  0  0  0  0  0  0  0  0
   -6.6030    0.0360    4.7160 O   0  0  0  0  0  0  0  0  0  0  0  0
   -4.1700   -0.0390    2.0430 C   0  0  0  0  0  0  0  0  0  0  0  0
    6.0690    0.6220    0.1530 C   0  0  0  0  0  0  0  0  0  0  0  0
    6.7310    0.3280   -1.4610 Cl  0  0  0  0  0  0  0  0  0  0  0  0
    6.8880    0.4210    1.2370 C   0  0  0  0  0  0  0  0  0  0  0  0
  1  2  1  0
  2  3  1  0
  3  4  2  0
  3 34  1  0
  4  5  1  0
  5  6  2  0
  6  7  1  0
  6 32  1  0
  7  8  1  0
  8  9  1  0
  9 10  1  0
 10 11  1  0
 10 17  1  0
 11 12  2  0
 11 13  1  0
 13 14  1  0
 14 15  1  0
 15 16  1  6
 15 17  1  0
 17 18  2  3
 18 19  1  0
 19 20  1  0
 20 21  2  0
 20 22  1  0
 22 23  1  0
 23 24  1  1
 23 25  1  0
 23 31  1  0
 25 26  1  0
 26 27  1  0
 27 28  1  0
 28 29  1  1
 28 31  1  0
 29 30  1  0
 32 33  1  0
 32 34  2  0
M  END
