
     RDKit          3D

 40 44  0  0  0  0  0  0  0  0999 V2000
   -5.3950   -1.7200   -3.9010 C   0  0  0  0  0  0  0  0  0  0  0  0
   -5.6110   -0.8100   -2.7460 C   0  0  0  0  0  0  0  0  0  0  0  0
   -6.6900    0.0510   -2.7940 C   0  0  0  0  0  0  0  0  0  0  0  0
   -7.5430    0.0930   -3.8560 F   0  0  0  0  0  0  0  0  0  0  0  0
   -6.9980    0.9500   -1.7570 C   0  0  0  0  0  0  0  0  0  0  0  0
   -8.0920    1.9040   -1.7810 C   0  0  0  0  0  0  0  0  0  0  0  0
   -6.1650    0.9310   -0.6740 C   0  0  0  0  0  0  0  0  0  0  0  0
   -5.0640    0.0440   -0.6360 C   0  0  0  0  0  0  0  0  0  0  0  0
   -4.7930   -0.8030   -1.6460 C   0  0  0  0  0  0  0  0  0  0  0  0
   -3.7240   -1.5900   -1.6070 F   0  0  0  0  0  0  0  0  0  0  0  0
   -4.1690   -0.0440    0.4970 C   0  0  0  0  0  0  0  0  0  0  0  0
   -3.5340   -1.3070    0.6030 N   0  0  0  0  0  0  0  0  0  0  0  0
   -2.2200   -1.3840    1.1470 C   0  0  0  0  0  0  0  0  0  0  0  0
   -1.1350   -0.7880    0.3050 C   0  0  1  0  0  0  0  0  0  0  0  0
   -1.2330    0.6460   -0.0200 C   0  0  0  0  0  0  0  0  0  0  0  0
    0.1620   -1.1090    0.8190 N   0  0  2  0  0  0  0  0  0  0  0  0
    0.4900   -0.5160    2.0870 C   0  0  0  0  0  0  0  0  0  0  0  0
    1.5550   -1.4130    2.6940 C   0  0  0  0  0  0  0  0  0  0  0  0
    2.6800   -1.4520    1.8370 N   0  0  0  0  0  0  0  0  0  0  0  0
    3.7700   -0.7210    2.3700 C   0  0  0  0  0  0  0  0  0  0  0  0
    4.9330   -0.7810    1.4520 C   0  0  0  0  0  0  0  0  0  0  0  0
    5.3560   -1.9670    0.8660 C   0  0  0  0  0  0  0  0  0  0  0  0
    6.4160   -2.0190    0.0220 C   0  0  0  0  0  0  0  0  0  0  0  0
    7.1640   -0.8770   -0.3200 C   0  0  0  0  0  0  0  0  0  0  0  0
    8.2120   -1.0410   -1.2990 C   0  0  0  0  0  0  0  0  0  0  0  0
    9.2500   -0.3690   -1.5390 C   0  0  0  0  0  0  0  0  0  0  0  0
    9.8260    0.8010   -0.9520 C   0  0  0  0  0  0  0  0  0  0  0  0
   10.9440    1.5180   -1.4660 C   0  0  0  0  0  0  0  0  0  0  0  0
   11.1970    2.5520   -0.6400 C   0  0  0  0  0  0  0  0  0  0  0  0
   10.3030    2.4990    0.3320 N   0  0  0  0  0  0  0  0  0  0  0  0
    9.5420    1.4980    0.1270 O   0  0  0  0  0  0  0  0  0  0  0  0
    6.7530    0.2870    0.2500 C   0  0  0  0  0  0  0  0  0  0  0  0
    5.6700    0.3240    1.1100 C   0  0  0  0  0  0  0  0  0  0  0  0
    2.4950   -1.4830    0.4460 C   0  0  0  0  0  0  0  0  0  0  0  0
    1.2340   -0.8540   -0.0940 C   0  0  0  0  0  0  0  0  0  0  0  0
   -3.9280    0.8570    1.3650 N   0  0  0  0  0  0  0  0  0  0  0  0
   -4.3900    2.1860    1.5590 C   0  0  0  0  0  0  0  0  0  0  0  0
   -5.6870    2.6640    1.1330 C   0  0  0  0  0  0  0  0  0  0  0  0
   -6.5640    1.8690    0.3020 N   0  0  0  0  0  0  0  0  0  0  0  0
   -8.0010    1.9270    0.3930 C   0  0  0  0  0  0  0  0  0  0  0  0
  1  2  1  0
  2  3  2  0
  2  9  1  0
  3  4  1  0
  3  5  1  0
  5  6  1  0
  5  7  2  0
  7  8  1  0
  7 39  1  0
  8  9  2  0
  8 11  1  0
  9 10  1  0
 11 12  1  0
 11 36  2  0
 12 13  1  0
 13 14  1  0
 14 15  1  1
 14 16  1  0
 16 17  1  1
 16 35  1  0
 17 18  1  0
 18 19  1  0
 19 20  1  0
 19 34  1  0
 20 21  1  0
 21 22  2  0
 21 33  1  0
 22 23  1  0
 23 24  2  0
 24 25  1  0
 24 32  1  0
 25 26  2  3
 26 27  1  0
 27 28  2  0
 27 31  1  0
 28 29  1  0
 29 30  2  0
 30 31  1  0
 32 33  2  0
 34 35  1  0
 36 37  1  0
 37 38  1  0
 38 39  1  0
 39 40  1  0
M  CHG  2  16   1  36   1
M  END
