
     RDKit          3D

 41 44  0  0  0  0  0  0  0  0999 V2000
    5.6200   -3.3250   -1.4660 C   0  0  0  0  0  0  0  0  0  0  0  0
    4.2710   -3.2550   -0.7340 C   0  0  2  0  0  0  0  0  0  0  0  0
    3.1720   -3.5390   -1.6710 C   0  0  0  0  0  0  0  0  0  0  0  0
    4.2480   -1.9110   -0.0740 C   0  0  0  0  0  0  0  0  0  0  0  0
    4.1700   -1.8150    1.2540 C   0  0  0  0  0  0  0  0  0  0  0  0
    4.1390   -0.6030    2.0400 C   0  0  0  0  0  0  0  0  0  0  0  0
    4.8990   -0.4980    3.0890 O   0  0  0  0  0  0  0  0  0  0  0  0
    3.3280    0.5520    1.7820 N   0  0  0  0  0  0  0  0  0  0  0  0
    2.0950    0.4790    1.3590 N   0  0  0  0  0  0  0  0  0  0  0  0
    0.9330    0.2640    1.1220 C   0  0  0  0  0  0  0  0  0  0  0  0
    0.0760   -0.7170    1.8480 C   0  0  0  0  0  0  0  0  0  0  0  0
   -0.4070   -0.3730    3.0840 C   0  0  0  0  0  0  0  0  0  0  0  0
   -1.2040   -1.2410    3.8280 C   0  0  0  0  0  0  0  0  0  0  0  0
   -1.4860   -2.4600    3.2690 C   0  0  0  0  0  0  0  0  0  0  0  0
   -1.0260   -2.8550    2.0310 C   0  0  0  0  0  0  0  0  0  0  0  0
   -0.2310   -1.9450    1.3300 C   0  0  0  0  0  0  0  0  0  0  0  0
    0.2230   -2.3340    0.1410 F   0  0  0  0  0  0  0  0  0  0  0  0
    0.2110    0.9530    0.1160 N   0  0  0  0  0  0  0  0  0  0  0  0
   -1.2540    1.0190    0.2420 C   0  0  0  0  0  0  0  0  0  0  0  0
   -1.9540    0.2640   -0.8570 C   0  0  0  0  0  0  0  0  0  0  0  0
   -3.3430    0.2990   -0.7660 N   0  0  0  0  0  0  0  0  0  0  0  0
   -4.0650    1.4810   -0.9580 C   0  0  0  0  0  0  0  0  0  0  0  0
   -5.2740    1.1770   -1.8540 C   0  0  0  0  0  0  0  0  0  0  0  0
   -6.3550    0.5370   -1.0230 C   0  0  0  0  0  0  0  0  0  0  0  0
   -6.3370   -0.9020   -1.1000 N   0  0  2  0  0  0  0  0  0  0  0  0
   -7.1010   -1.4780   -0.0100 C   0  0  0  0  0  0  0  0  0  0  0  0
   -5.0150   -1.4530   -1.1120 C   0  0  0  0  0  0  0  0  0  0  0  0
   -4.0620   -0.7320   -0.1450 C   0  0  0  0  0  0  0  0  0  0  0  0
    0.7270    1.6220   -1.0170 C   0  0  0  0  0  0  0  0  0  0  0  0
    2.1530    1.8230   -1.1790 C   0  0  0  0  0  0  0  0  0  0  0  0
    2.8580    2.7070   -0.5530 C   0  0  0  0  0  0  0  0  0  0  0  0
    2.5260    3.7090    0.4300 C   0  0  0  0  0  0  0  0  0  0  0  0
    3.3730    4.5460    0.9890 N   0  0  0  0  0  0  0  0  0  0  0  0
    2.7140    5.3960    1.9100 C   0  0  0  0  0  0  0  0  0  0  0  0
    1.4410    5.1390    1.9730 C   0  0  0  0  0  0  0  0  0  0  0  0
    1.2020    4.0040    1.0000 C   0  0  0  0  0  0  0  0  0  0  0  0
    2.9320    0.9720   -2.1830 C   0  0  1  0  0  0  0  0  0  0  0  0
    2.2640    1.0490   -3.4170 F   0  0  0  0  0  0  0  0  0  0  0  0
    4.1560    1.5650   -2.3940 F   0  0  0  0  0  0  0  0  0  0  0  0
    3.1250   -0.4290   -1.7540 C   0  0  0  0  0  0  0  0  0  0  0  0
    4.3320   -0.7170   -0.9510 C   0  0  0  0  0  0  0  0  0  0  0  0
  2  1  1  6
  2  3  1  0
  2  4  1  0
  4  5  2  0
  4 41  1  0
  5  6  1  0
  6  7  2  0
  6  8  1  0
  8  9  1  0
  9 10  2  0
 10 11  1  0
 10 18  1  0
 11 12  2  0
 11 16  1  0
 12 13  1  0
 13 14  2  0
 14 15  1  0
 15 16  2  0
 16 17  1  0
 18 19  1  0
 18 29  1  0
 19 20  1  0
 20 21  1  0
 21 22  1  0
 21 28  1  0
 22 23  1  0
 23 24  1  0
 24 25  1  0
 25 26  1  1
 25 27  1  0
 27 28  1  0
 29 30  1  0
 30 31  2  3
 30 37  1  0
 31 32  1  0
 32 33  2  0
 32 36  1  0
 33 34  1  0
 34 35  2  0
 35 36  1  0
 37 38  1  6
 37 39  1  0
 37 40  1  0
 40 41  1  0
M  CHG  2  25   1  33   1
M  END
