
     RDKit          3D

 41 45  0  0  0  0  0  0  0  0999 V2000
   10.6390   -1.6520   -0.9880 C   0  0  0  0  0  0  0  0  0  0  0  0
    9.4330   -1.8240   -1.5000 C   0  0  0  0  0  0  0  0  0  0  0  0
    8.7760   -0.7910   -2.3210 C   0  0  0  0  0  0  0  0  0  0  0  0
    7.5760   -0.3300   -1.8270 O   0  0  0  0  0  0  0  0  0  0  0  0
    7.2540    0.3080   -0.6820 C   0  0  0  0  0  0  0  0  0  0  0  0
    8.1550    0.6580    0.2970 C   0  0  0  0  0  0  0  0  0  0  0  0
    7.7870    1.3180    1.4630 C   0  0  0  0  0  0  0  0  0  0  0  0
    8.7270    1.6310    2.3790 F   0  0  0  0  0  0  0  0  0  0  0  0
    6.4750    1.6380    1.6540 C   0  0  0  0  0  0  0  0  0  0  0  0
    5.5460    1.3040    0.6950 C   0  0  0  0  0  0  0  0  0  0  0  0
    4.1120    1.6210    0.8950 C   0  0  0  0  0  0  0  0  0  0  0  0
    3.2080    0.6570    0.9490 N   0  0  0  0  0  0  0  0  0  0  0  0
    1.8500    0.8220    1.1100 C   0  0  0  0  0  0  0  0  0  0  0  0
    1.0230   -0.3870    1.2000 C   0  0  0  0  0  0  0  0  0  0  0  0
    1.7320   -1.5260    1.6500 C   0  0  0  0  0  0  0  0  0  0  0  0
    1.1370   -2.7430    1.7150 C   0  0  0  0  0  0  0  0  0  0  0  0
   -0.1620   -2.8780    1.3440 C   0  0  0  0  0  0  0  0  0  0  0  0
   -0.7460   -4.1110    1.4150 F   0  0  0  0  0  0  0  0  0  0  0  0
   -0.8680   -1.7840    0.9050 C   0  0  0  0  0  0  0  0  0  0  0  0
   -0.2850   -0.5450    0.8310 C   0  0  0  0  0  0  0  0  0  0  0  0
   -1.0560    0.5950    0.3780 C   0  0  0  0  0  0  0  0  0  0  0  0
   -2.3780    0.4540   -0.1060 N   0  0  2  0  0  0  0  0  0  0  0  0
   -3.3310    0.3930    0.9850 C   0  0  0  0  0  0  0  0  0  0  0  0
   -4.7360    0.6720    0.4140 C   0  0  0  0  0  0  0  0  0  0  0  0
   -5.0680   -0.3910   -0.5030 N   0  0  0  0  0  0  0  0  0  0  0  0
   -6.4350   -0.6150   -0.7720 C   0  0  0  0  0  0  0  0  0  0  0  0
   -7.2030    0.3950   -1.0380 N   0  0  0  0  0  0  0  0  0  0  0  0
   -8.6290    0.4290   -1.3460 C   0  0  0  0  0  0  0  0  0  0  0  0
   -9.4450   -0.0710   -0.1720 C   0  0  0  0  0  0  0  0  0  0  0  0
   -9.0270   -1.4420    0.2430 C   0  0  0  0  0  0  0  0  0  0  0  0
   -9.4420   -1.7620    1.4070 N   0  0  0  0  0  0  0  0  0  0  0  0
   -8.2120   -2.4570   -0.4940 C   0  0  0  0  0  0  0  0  0  0  0  0
   -6.8580   -1.9630   -0.7270 N   0  0  0  0  0  0  0  0  0  0  0  0
   -3.9980   -1.1530   -1.0720 C   0  0  0  0  0  0  0  0  0  0  0  0
   -2.6820   -0.4120   -1.1740 C   0  0  0  0  0  0  0  0  0  0  0  0
    1.4660    2.1200    1.2200 C   0  0  0  0  0  0  0  0  0  0  0  0
    2.3800    3.1880    1.1700 C   0  0  0  0  0  0  0  0  0  0  0  0
    3.7210    2.9330    1.0050 C   0  0  0  0  0  0  0  0  0  0  0  0
    4.6500    4.0900    0.9250 C   0  0  0  0  0  0  0  0  0  0  0  0
    5.9110    0.6560   -0.4470 C   0  0  0  0  0  0  0  0  0  0  0  0
    5.0260    0.3150   -1.3980 F   0  0  0  0  0  0  0  0  0  0  0  0
  1  2  2  0
  2  3  1  0
  3  4  1  0
  4  5  1  0
  5  6  2  0
  5 40  1  0
  6  7  1  0
  7  8  1  0
  7  9  2  0
  9 10  1  0
 10 11  1  0
 10 40  2  0
 11 12  2  0
 11 38  1  0
 12 13  1  0
 13 14  1  0
 13 36  2  0
 14 15  2  0
 14 20  1  0
 15 16  1  0
 16 17  2  0
 17 18  1  0
 17 19  1  0
 19 20  2  0
 20 21  1  0
 22 21  1  1
 22 23  1  0
 22 35  1  0
 23 24  1  0
 24 25  1  0
 25 26  1  0
 25 34  1  0
 26 27  2  0
 26 33  1  0
 27 28  1  0
 28 29  1  0
 29 30  1  0
 30 31  2  0
 30 32  1  0
 32 33  1  0
 34 35  1  0
 36 37  1  0
 37 38  2  0
 38 39  1  0
 40 41  1  0
M  CHG  2  22   1  27   1
M  END
