
     RDKit          3D

 41 45  0  0  0  0  0  0  0  0999 V2000
    2.2530   -5.8620   -1.4750 C   0  0  0  0  0  0  0  0  0  0  0  0
    1.1280   -4.9670   -1.0980 C   0  0  0  0  0  0  0  0  0  0  0  0
   -0.1620   -5.3450   -1.4220 C   0  0  0  0  0  0  0  0  0  0  0  0
   -1.0940   -4.4150   -1.0760 C   0  0  0  0  0  0  0  0  0  0  0  0
   -0.9640   -3.2390   -0.4950 C   0  0  0  0  0  0  0  0  0  0  0  0
    0.4030   -2.8420   -0.1740 C   0  0  0  0  0  0  0  0  0  0  0  0
    1.3940   -3.7260   -0.4810 C   0  0  0  0  0  0  0  0  0  0  0  0
    2.7650   -3.3590   -0.3600 N   0  0  0  0  0  0  0  0  0  0  0  0
    3.0280   -2.1120    0.0370 C   0  0  0  0  0  0  0  0  0  0  0  0
    2.0560   -1.1270    0.3870 C   0  0  0  0  0  0  0  0  0  0  0  0
    2.6690    0.0580    0.6970 C   0  0  0  0  0  0  0  0  0  0  0  0
    1.4110    0.7890    1.3230 O   0  0  0  0  0  0  0  0  0  0  0  0
    3.4440    1.1360    0.9240 N   0  0  0  0  0  0  0  0  0  0  0  0
    4.7810    0.8750    0.1700 C   0  0  0  0  0  0  0  0  0  0  0  0
    5.8630    0.8070    1.1390 C   0  0  0  0  0  0  0  0  0  0  0  0
    6.2320    2.2480    1.5600 C   0  0  0  0  0  0  0  0  0  0  0  0
    5.5540    3.2460    0.7750 N   0  0  0  0  0  0  0  0  0  0  0  0
    6.2660    3.6270   -0.4020 C   0  0  0  0  0  0  0  0  0  0  0  0
    4.1730    3.4300    0.8850 C   0  0  0  0  0  0  0  0  0  0  0  0
    3.3320    2.3640    1.6070 C   0  0  0  0  0  0  0  0  0  0  0  0
    0.6560   -1.4900    0.3440 C   0  0  1  0  0  0  0  0  0  0  0  0
   -0.1650   -0.5490   -0.4670 N   0  0  0  0  0  0  0  0  0  0  0  0
   -1.0750    0.2280    0.2370 C   0  0  0  0  0  0  0  0  0  0  0  0
   -2.5060    0.4640   -0.0660 C   0  0  1  0  0  0  0  0  0  0  0  0
   -3.4740   -0.6500   -0.0760 C   0  0  0  0  0  0  0  0  0  0  0  0
   -3.8420   -1.3650   -1.1900 C   0  0  0  0  0  0  0  0  0  0  0  0
   -4.8800   -2.2720   -1.1990 C   0  0  0  0  0  0  0  0  0  0  0  0
   -5.2490   -2.9650   -2.2690 F   0  0  0  0  0  0  0  0  0  0  0  0
   -5.6210   -2.5150   -0.0470 C   0  0  0  0  0  0  0  0  0  0  0  0
   -6.6450   -3.4080    0.0090 F   0  0  0  0  0  0  0  0  0  0  0  0
   -5.3220   -1.8390    1.1240 C   0  0  0  0  0  0  0  0  0  0  0  0
   -6.0460   -1.8140    2.2680 C   0  0  0  0  0  0  0  0  0  0  0  0
   -6.7620   -1.7720    3.3900 N   0  0  0  0  0  0  0  0  0  0  0  0
   -4.2110   -0.9070    1.0320 C   0  0  0  0  0  0  0  0  0  0  0  0
   -3.8990   -0.3330    2.2570 F   0  0  0  0  0  0  0  0  0  0  0  0
   -2.9950    1.7550    0.3740 N   0  0  1  0  0  0  0  0  0  0  0  0
   -2.5900    2.8520   -0.5060 C   0  0  0  0  0  0  0  0  0  0  0  0
   -3.4210    2.9570   -1.7580 C   0  0  0  0  0  0  0  0  0  0  0  0
   -4.8580    3.2480   -1.4050 C   0  0  0  0  0  0  0  0  0  0  0  0
   -4.9650    3.2530    0.0720 C   0  0  0  0  0  0  0  0  0  0  0  0
   -4.3780    1.9080    0.6360 C   0  0  0  0  0  0  0  0  0  0  0  0
  1  2  1  0
  2  3  2  0
  2  7  1  0
  3  4  1  0
  4  5  2  0
  5  6  1  0
  6  7  2  0
  6 21  1  0
  7  8  1  0
  8  9  1  0
  9 10  2  0
 10 11  1  0
 10 21  1  0
 11 12  2  0
 11 13  1  0
 13 14  1  0
 13 20  1  0
 14 15  1  0
 15 16  1  0
 16 17  1  0
 17 18  1  0
 17 19  1  0
 19 20  1  0
 21 22  1  6
 22 23  1  0
 24 23  1  1
 24 25  1  0
 24 36  1  0
 25 26  2  0
 25 34  1  0
 26 27  1  0
 27 28  1  0
 27 29  2  0
 29 30  1  0
 29 31  1  0
 31 32  1  0
 31 34  2  0
 32 33  3  0
 34 35  1  0
 36 37  1  6
 36 41  1  0
 37 38  1  0
 38 39  1  0
 39 40  1  0
 40 41  1  0
M  CHG  2  22   1  36   1
M  END
