
     RDKit          3D

 41 45  0  0  0  0  0  0  0  0999 V2000
   -1.9520   -0.5330    1.0040 O   0  0  0  0  0  0  0  0  0  0  0  0
   -1.1170    0.0740    0.1890 C   0  0  0  0  0  0  0  0  0  0  0  0
    0.2300   -0.3480    0.3980 C   0  0  0  0  0  0  0  0  0  0  0  0
    1.3380   -0.0350   -0.2010 C   0  0  0  0  0  0  0  0  0  0  0  0
    2.6120   -0.6170    0.2150 C   0  0  0  0  0  0  0  0  0  0  0  0
    3.7760   -0.2430   -0.4730 C   0  0  0  0  0  0  0  0  0  0  0  0
    5.0170   -0.7350   -0.1490 C   0  0  0  0  0  0  0  0  0  0  0  0
    5.1900   -1.6320    0.8790 C   0  0  0  0  0  0  0  0  0  0  0  0
    6.5330   -2.1710    1.2400 C   0  0  0  0  0  0  0  0  0  0  0  0
    7.6150   -1.5220    0.5780 N   0  0  0  0  0  0  0  0  0  0  0  0
    7.9360   -0.1470    0.7510 C   0  0  0  0  0  0  0  0  0  0  0  0
    7.2160    0.6320    1.6370 C   0  0  0  0  0  0  0  0  0  0  0  0
    7.5460    1.9570    1.7890 C   0  0  0  0  0  0  0  0  0  0  0  0
    8.5780    2.4790    1.0620 C   0  0  0  0  0  0  0  0  0  0  0  0
    9.2760    1.7400    0.2070 N   0  0  0  0  0  0  0  0  0  0  0  0
    8.9630    0.4510    0.0530 C   0  0  0  0  0  0  0  0  0  0  0  0
    4.0610   -2.0140    1.5690 C   0  0  0  0  0  0  0  0  0  0  0  0
    2.7960   -1.5080    1.2330 C   0  0  0  0  0  0  0  0  0  0  0  0
   -1.7700    0.9540   -0.6490 N   0  0  0  0  0  0  0  0  0  0  0  0
   -1.0970    1.8320   -1.5800 C   0  0  0  0  0  0  0  0  0  0  0  0
   -1.2880    1.1470   -2.8930 C   0  0  0  0  0  0  0  0  0  0  0  0
   -2.5510    0.8500   -3.1690 C   0  0  0  0  0  0  0  0  0  0  0  0
   -3.5810    1.2130   -2.1970 C   0  0  0  0  0  0  0  0  0  0  0  0
   -3.2170    1.0990   -0.7440 C   0  0  1  0  0  0  0  0  0  0  0  0
   -4.0230    0.0770   -0.1040 C   0  0  0  0  0  0  0  0  0  0  0  0
   -4.8300    0.4430    0.8340 N   0  0  0  0  0  0  0  0  0  0  0  0
   -4.9880    1.7860    1.2900 C   0  0  0  0  0  0  0  0  0  0  0  0
   -4.1870    2.2500    2.3060 C   0  0  0  0  0  0  0  0  0  0  0  0
   -3.2410    1.4350    2.8930 F   0  0  0  0  0  0  0  0  0  0  0  0
   -4.3080    3.5410    2.7730 C   0  0  0  0  0  0  0  0  0  0  0  0
   -5.2590    4.3700    2.1960 C   0  0  0  0  0  0  0  0  0  0  0  0
   -6.0560    3.8910    1.1770 C   0  0  0  0  0  0  0  0  0  0  0  0
   -6.9670    4.7340    0.6460 F   0  0  0  0  0  0  0  0  0  0  0  0
   -5.9400    2.6070    0.7080 C   0  0  0  0  0  0  0  0  0  0  0  0
   -6.7300    2.1240   -0.3010 F   0  0  0  0  0  0  0  0  0  0  0  0
   -4.0450   -1.3140   -0.4040 N   0  0  0  0  0  0  0  0  0  0  0  0
   -3.5290   -1.8990   -1.6290 C   0  0  0  0  0  0  0  0  0  0  0  0
   -3.5450   -3.4070   -1.4590 C   0  0  0  0  0  0  0  0  0  0  0  0
   -4.9080   -3.8260   -1.3550 N   0  0  0  0  0  0  0  0  0  0  0  0
   -5.4670   -3.3070   -0.1220 C   0  0  0  0  0  0  0  0  0  0  0  0
   -4.6160   -2.2780    0.5410 C   0  0  0  0  0  0  0  0  0  0  0  0
  1  2  2  0
  2  3  1  0
  2 19  1  0
  3  4  2  3
  4  5  1  0
  5  6  2  0
  5 18  1  0
  6  7  1  0
  7  8  2  0
  8  9  1  0
  8 17  1  0
  9 10  1  0
 10 11  1  0
 11 12  2  0
 11 16  1  0
 12 13  1  0
 13 14  2  0
 14 15  1  0
 15 16  2  0
 17 18  2  0
 19 20  1  0
 19 24  1  0
 20 21  1  0
 21 22  2  0
 22 23  1  0
 23 24  1  0
 24 25  1  6
 25 26  2  3
 25 36  1  0
 26 27  1  0
 27 28  2  0
 27 34  1  0
 28 29  1  0
 28 30  1  0
 30 31  2  0
 31 32  1  0
 32 33  1  0
 32 34  2  0
 34 35  1  0
 36 37  1  0
 36 41  1  0
 37 38  1  0
 38 39  1  0
 39 40  1  0
 40 41  1  0
M  CHG  2  15   1  39   1
M  END
