
     RDKit          3D

 26 28  0  0  0  0  0  0  0  0999 V2000
    1.0520    1.6140   -3.8180 N   0  0  0  0  0  0  0  0  0  0  0  0
    0.7660    1.5610   -2.5560 C   0  0  0  0  0  0  0  0  0  0  0  0
   -0.3860    2.1950   -2.0320 N   0  0  0  0  0  0  0  0  0  0  0  0
   -0.6750    2.1290   -0.6770 N   0  0  0  0  0  0  0  0  0  0  0  0
    0.0330    1.5170    0.2070 C   0  0  0  0  0  0  0  0  0  0  0  0
   -0.4250    1.5620    1.5430 N   0  0  0  0  0  0  0  0  0  0  0  0
   -1.6900    2.2060    1.8650 C   0  0  0  0  0  0  0  0  0  0  0  0
   -2.8250    1.4350    1.3540 C   0  0  0  0  0  0  0  0  0  0  0  0
   -3.9790    1.9350    1.5660 O   0  0  0  0  0  0  0  0  0  0  0  0
   -2.6380    0.2260    0.6770 N   0  0  0  0  0  0  0  0  0  0  0  0
   -3.6820   -0.5630    0.1500 C   0  0  0  0  0  0  0  0  0  0  0  0
   -5.0070   -0.2090    0.1020 C   0  0  0  0  0  0  0  0  0  0  0  0
   -5.9780   -1.0480   -0.4300 C   0  0  0  0  0  0  0  0  0  0  0  0
   -5.6150   -2.2830   -0.9330 C   0  0  0  0  0  0  0  0  0  0  0  0
   -4.3440   -2.6190   -0.8850 N   0  0  0  0  0  0  0  0  0  0  0  0
   -3.3780   -1.8250   -0.3740 C   0  0  0  0  0  0  0  0  0  0  0  0
    1.2660    0.8190   -0.2470 C   0  0  0  0  0  0  0  0  0  0  0  0
    1.9310    0.1930    0.6660 C   0  0  0  0  0  0  0  0  0  0  0  0
    3.1730   -0.5900    0.6190 C   0  0  0  0  0  0  0  0  0  0  0  0
    3.6410   -1.1620    1.7030 C   0  0  0  0  0  0  0  0  0  0  0  0
    4.8820   -1.9360    1.6030 C   0  0  0  0  0  0  0  0  0  0  0  0
    5.5430   -1.4020    0.0670 S   0  0  1  0  0  0  0  0  0  0  0  0
    6.5710   -0.3230    0.2020 O   0  0  0  0  0  0  0  0  0  0  0  0
    5.9800   -2.5120   -0.8120 O   0  0  0  0  0  0  0  0  0  0  0  0
    3.9880   -0.7410   -0.5930 C   0  0  0  0  0  0  0  0  0  0  0  0
    1.6090    0.8530   -1.6130 N   0  0  0  0  0  0  0  0  0  0  0  0
  1  2  2  0
  2  3  1  0
  2 26  1  0
  3  4  1  0
  4  5  2  0
  5  6  1  0
  5 17  1  0
  6  7  1  0
  7  8  1  0
  8  9  2  0
  8 10  1  0
 10 11  1  0
 11 12  2  0
 11 16  1  0
 12 13  1  0
 13 14  2  0
 14 15  1  0
 15 16  2  0
 17 18  2  3
 17 26  1  0
 18 19  1  0
 19 20  2  0
 19 25  1  0
 20 21  1  0
 22 21  1  1
 22 23  2  0
 22 24  2  0
 22 25  1  0
M  END
