
     RDKit          3D

 26 28  0  0  0  0  0  0  0  0999 V2000
   -3.8670   -3.7410   -0.1390 N   0  0  0  0  0  0  0  0  0  0  0  0
   -4.2260   -2.3560   -0.2110 C   0  0  0  0  0  0  0  0  0  0  0  0
   -5.5540   -1.9820   -0.3120 C   0  0  0  0  0  0  0  0  0  0  0  0
   -5.9170   -0.6390   -0.3840 C   0  0  0  0  0  0  0  0  0  0  0  0
   -4.9380    0.3290   -0.3540 C   0  0  0  0  0  0  0  0  0  0  0  0
   -3.6290   -0.0800   -0.2530 C   0  0  0  0  0  0  0  0  0  0  0  0
   -2.5930    0.9300   -0.2170 N   0  0  0  0  0  0  0  0  0  0  0  0
   -2.9370    2.2840   -0.2630 C   0  0  0  0  0  0  0  0  0  0  0  0
   -1.8690    3.3270   -0.2380 C   0  0  0  0  0  0  0  0  0  0  0  0
   -2.5810    4.5750   -0.3000 O   0  0  0  0  0  0  0  0  0  0  0  0
   -1.2400    0.4270   -0.1350 C   0  0  0  0  0  0  0  0  0  0  0  0
   -0.6550   -0.5940   -0.0800 N   0  0  0  0  0  0  0  0  0  0  0  0
    0.6320   -0.8250   -0.0110 C   0  0  0  0  0  0  0  0  0  0  0  0
    1.4090    0.2510   -0.0020 C   0  0  0  0  0  0  0  0  0  0  0  0
    2.8960    0.4610    0.0640 C   0  0  0  0  0  0  0  0  0  0  0  0
    3.3210    1.6490    0.0550 O   0  0  0  0  0  0  0  0  0  0  0  0
    3.7420   -0.6390    0.1320 N   0  0  0  0  0  0  0  0  0  0  0  0
    5.1560   -0.5690    0.1990 C   0  0  0  0  0  0  0  0  0  0  0  0
    5.9000    0.5740    0.2130 C   0  0  0  0  0  0  0  0  0  0  0  0
    7.2970    0.5380    0.2800 C   0  0  0  0  0  0  0  0  0  0  0  0
    7.9180   -0.6440    0.3330 N   0  0  0  0  0  0  0  0  0  0  0  0
    7.2090   -1.7760    0.3210 N   0  0  0  0  0  0  0  0  0  0  0  0
    5.8890   -1.7610    0.2570 C   0  0  0  0  0  0  0  0  0  0  0  0
    5.2550   -2.8270    0.2470 O   0  0  0  0  0  0  0  0  0  0  0  0
    0.2170    1.6130   -0.0960 S   0  0  0  0  0  0  0  0  0  0  0  0
   -3.3020   -1.3810   -0.1850 N   0  0  0  0  0  0  0  0  0  0  0  0
  1  2  1  0
  2  3  2  0
  2 26  1  0
  3  4  1  0
  4  5  2  0
  5  6  1  0
  6  7  1  0
  6 26  2  0
  7  8  1  0
  7 11  1  0
  8  9  1  0
  9 10  1  0
 11 12  2  0
 11 25  1  0
 12 13  1  0
 13 14  2  0
 14 15  1  0
 14 25  1  0
 15 16  2  0
 15 17  1  0
 17 18  1  0
 18 19  2  0
 18 23  1  0
 19 20  1  0
 20 21  2  0
 21 22  1  0
 22 23  1  0
 23 24  2  0
M  END
