
     RDKit          3D

 26 28  0  0  0  0  0  0  0  0999 V2000
   -7.4480    0.4200    1.2660 N   0  0  0  0  0  0  0  0  0  0  0  0
   -6.3840    0.7530    0.3830 C   0  0  0  0  0  0  0  0  0  0  0  0
   -6.5640    1.1580   -0.8810 N   0  0  0  0  0  0  0  0  0  0  0  0
   -5.5750    1.4760   -1.7280 C   0  0  0  0  0  0  0  0  0  0  0  0
   -4.3080    1.3870   -1.2970 N   0  0  0  0  0  0  0  0  0  0  0  0
   -4.0360    0.9910   -0.0510 C   0  0  0  0  0  0  0  0  0  0  0  0
   -5.0650    0.6660    0.8140 C   0  0  0  0  0  0  0  0  0  0  0  0
   -4.4860    0.3140    1.9620 N   0  0  0  0  0  0  0  0  0  0  0  0
   -3.1520    0.4150    1.8230 C   0  0  0  0  0  0  0  0  0  0  0  0
   -2.8380    0.8320    0.5860 N   0  0  0  0  0  0  0  0  0  0  0  0
   -1.5070    1.0540    0.0720 C   0  0  0  0  0  0  0  0  0  0  0  0
   -0.9460   -0.1870   -0.5560 C   0  0  0  0  0  0  0  0  0  0  0  0
   -1.1660   -0.3460   -1.7720 O   0  0  0  0  0  0  0  0  0  0  0  0
   -0.2050   -1.1330    0.1810 N   0  0  0  0  0  0  0  0  0  0  0  0
    0.3210   -2.3060   -0.4620 C   0  0  0  0  0  0  0  0  0  0  0  0
    1.3020   -1.9210   -1.5220 C   0  0  0  0  0  0  0  0  0  0  0  0
    2.4400   -1.1660   -0.9470 C   0  0  0  0  0  0  0  0  0  0  0  0
    3.5290   -1.8970   -0.4870 C   0  0  0  0  0  0  0  0  0  0  0  0
    4.6420   -1.3000    0.0610 C   0  0  0  0  0  0  0  0  0  0  0  0
    4.6930    0.0840    0.1670 C   0  0  0  0  0  0  0  0  0  0  0  0
    6.0810    0.9010    0.8550 S   0  0  1  0  0  0  0  0  0  0  0  0
    7.1800    1.2310   -0.4330 N   0  0  0  0  0  0  0  0  0  0  0  0
    5.6330    2.1560    1.5380 O   0  0  0  0  0  0  0  0  0  0  0  0
    6.7570   -0.0000    1.8330 O   0  0  0  0  0  0  0  0  0  0  0  0
    3.6200    0.8210   -0.2850 C   0  0  0  0  0  0  0  0  0  0  0  0
    2.5000    0.2030   -0.8380 C   0  0  0  0  0  0  0  0  0  0  0  0
  1  2  1  0
  2  3  2  0
  2  7  1  0
  3  4  1  0
  4  5  2  0
  5  6  1  0
  6  7  2  0
  6 10  1  0
  7  8  1  0
  8  9  2  0
  9 10  1  0
 10 11  1  0
 11 12  1  0
 12 13  2  0
 12 14  1  0
 14 15  1  0
 15 16  1  0
 16 17  1  0
 17 18  2  0
 17 26  1  0
 18 19  1  0
 19 20  2  0
 20 21  1  0
 20 25  1  0
 21 22  1  6
 21 23  2  0
 21 24  2  0
 25 26  2  0
M  END
