
     RDKit          3D

 43 46  0  0  0  0  0  0  0  0999 V2000
   10.0520   -0.1280   -2.2940 C   0  0  0  0  0  0  0  0  0  0  0  0
    9.8010   -1.6190   -2.3400 C   0  0  0  0  0  0  0  0  0  0  0  0
    8.7620   -1.9070   -1.4210 O   0  0  0  0  0  0  0  0  0  0  0  0
    7.5240   -1.3210   -1.5250 C   0  0  0  0  0  0  0  0  0  0  0  0
    7.3830   -0.5030   -2.5030 O   0  0  0  0  0  0  0  0  0  0  0  0
    6.4610   -1.5560   -0.6690 O   0  0  0  0  0  0  0  0  0  0  0  0
    5.2520   -0.8610   -0.9190 C   0  0  0  0  0  0  0  0  0  0  0  0
    4.2030   -1.2170    0.0670 C   0  0  0  0  0  0  0  0  0  0  0  0
    4.2780   -2.0410    1.0460 O   0  0  0  0  0  0  0  0  0  0  0  0
    3.1240   -2.0930    1.7080 C   0  0  0  0  0  0  0  0  0  0  0  0
    2.9240   -2.8260    2.7270 N   0  0  0  0  0  0  0  0  0  0  0  0
    2.2610   -1.2640    1.1270 N   0  0  0  0  0  0  0  0  0  0  0  0
    0.9560   -0.9010    1.3690 C   0  0  0  0  0  0  0  0  0  0  0  0
    0.2050   -1.5340    2.2100 C   0  0  0  0  0  0  0  0  0  0  0  0
    0.3430   -2.6450    3.0910 C   0  0  0  0  0  0  0  0  0  0  0  0
    0.1700   -3.9810    2.6980 C   0  0  0  0  0  0  0  0  0  0  0  0
    0.3650   -4.7300    3.7830 N   0  0  0  0  0  0  0  0  0  0  0  0
    0.6470   -3.9310    4.8140 C   0  0  0  0  0  0  0  0  0  0  0  0
    0.6280   -2.7030    4.3810 O   0  0  0  0  0  0  0  0  0  0  0  0
    0.3230    0.0580    0.5590 C   0  0  0  0  0  0  0  0  0  0  0  0
   -0.7510    0.6960    0.8870 C   0  0  0  0  0  0  0  0  0  0  0  0
   -1.6490    0.7950    1.9620 C   0  0  0  0  0  0  0  0  0  0  0  0
   -2.7430    1.6100    1.8990 C   0  0  0  0  0  0  0  0  0  0  0  0
   -3.1220    2.4310    0.8040 N   0  0  0  0  0  0  0  0  0  0  0  0
   -4.2030    3.0860    1.1080 C   0  0  0  0  0  0  0  0  0  0  0  0
   -4.8350    3.9970    0.2160 N   0  0  0  0  0  0  0  0  0  0  0  0
   -5.1370    3.6770   -1.1500 C   0  0  2  0  0  0  0  0  0  0  0  0
   -6.0950    2.4860   -1.2360 C   0  0  0  0  0  0  0  0  0  0  0  0
   -5.5580    1.3620   -0.6600 O   0  0  0  0  0  0  0  0  0  0  0  0
   -6.3960    0.2600   -0.6870 C   0  0  0  0  0  0  0  0  0  0  0  0
   -6.7830   -0.1510   -2.0710 C   0  0  0  0  0  0  0  0  0  0  0  0
   -5.6610   -0.4780   -2.8240 O   0  0  0  0  0  0  0  0  0  0  0  0
   -6.0180   -0.8290   -4.0350 O   0  0  0  0  0  0  0  0  0  0  0  0
   -3.9840    3.4080   -2.0010 C   0  0  0  0  0  0  0  0  0  0  0  0
   -2.8230    3.4680   -1.5790 O   0  0  0  0  0  0  0  0  0  0  0  0
   -4.1900    3.0720   -3.3350 O   0  0  0  0  0  0  0  0  0  0  0  0
   -4.6190    2.7550    2.4090 O   0  0  0  0  0  0  0  0  0  0  0  0
   -3.7240    1.8240    2.9430 C   0  0  0  0  0  0  0  0  0  0  0  0
   -3.7620    1.2830    4.0960 O   0  0  0  0  0  0  0  0  0  0  0  0
    1.0900    0.5840   -0.5030 C   0  0  0  0  0  0  0  0  0  0  0  0
    0.6480    1.4280   -1.3100 N   0  0  0  0  0  0  0  0  0  0  0  0
    2.3350    0.1850   -0.6820 O   0  0  0  0  0  0  0  0  0  0  0  0
    2.9150   -0.6820    0.0750 C   0  0  0  0  0  0  0  0  0  0  0  0
  1  2  1  0
  2  3  1  0
  3  4  1  0
  4  5  2  0
  4  6  1  0
  6  7  1  0
  7  8  1  0
  8  9  1  0
  8 43  2  0
  9 10  1  0
 10 11  2  0
 10 12  1  0
 12 13  1  0
 12 43  1  0
 13 14  2  3
 13 20  1  0
 14 15  1  0
 15 16  2  0
 15 19  1  0
 16 17  1  0
 17 18  2  0
 18 19  1  0
 20 21  2  3
 20 40  1  0
 21 22  1  0
 22 23  2  3
 23 24  1  0
 23 38  1  0
 24 25  2  0
 25 26  1  0
 25 37  1  0
 26 27  1  0
 27 28  1  1
 27 34  1  0
 28 29  1  0
 29 30  1  0
 30 31  1  0
 31 32  1  0
 32 33  1  0
 34 35  2  0
 34 36  1  0
 37 38  1  0
 38 39  2  0
 40 41  2  0
 40 42  1  0
 42 43  1  0
M  END
