
     RDKit          3D

 43 47  0  0  0  0  0  0  0  0999 V2000
   -0.4310   -2.3060   -3.2960 O   0  0  0  0  0  0  0  0  0  0  0  0
    0.0220   -2.6490   -2.1150 C   0  0  0  0  0  0  0  0  0  0  0  0
   -0.4090   -1.7440   -1.0990 N   0  0  0  0  0  0  0  0  0  0  0  0
   -0.9820   -2.0480    0.1710 C   0  0  0  0  0  0  0  0  0  0  0  0
   -1.6830   -0.8040    0.7020 C   0  0  1  0  0  0  0  0  0  0  0  0
   -2.7450   -0.5670   -0.3810 C   0  0  0  0  0  0  0  0  0  0  0  0
   -3.6350    0.4560   -0.1300 O   0  0  0  0  0  0  0  0  0  0  0  0
   -4.6660    0.8470   -0.9550 C   0  0  0  0  0  0  0  0  0  0  0  0
   -4.8170    0.2240   -2.0300 O   0  0  0  0  0  0  0  0  0  0  0  0
   -5.5330    1.9670   -0.5370 C   0  0  2  0  0  0  0  0  0  0  0  0
   -5.3110    3.1420   -1.4720 C   0  0  0  0  0  0  0  0  0  0  0  0
   -5.6690    4.2110   -0.6700 O   0  0  0  0  0  0  0  0  0  0  0  0
   -5.5240    3.8400    0.6420 C   0  0  0  0  0  0  0  0  0  0  0  0
   -5.1730    2.4980    0.6820 O   0  0  0  0  0  0  0  0  0  0  0  0
   -2.4830   -1.1630    1.9330 C   0  0  0  0  0  0  0  0  0  0  0  0
   -2.2210   -0.2360    2.9150 O   0  0  0  0  0  0  0  0  0  0  0  0
   -2.4300    1.0590    2.5280 C   0  0  0  0  0  0  0  0  0  0  0  0
   -1.6640    1.5070    1.3160 C   0  0  0  0  0  0  0  0  0  0  0  0
   -0.8690    0.3720    0.8160 N   0  0  0  0  0  0  0  0  0  0  0  0
    0.4640    0.6450    0.5340 C   0  0  0  0  0  0  0  0  0  0  0  0
    0.5810    1.6720   -0.2930 O   0  0  0  0  0  0  0  0  0  0  0  0
    1.7770    0.1160    0.8950 C   0  0  2  0  0  0  0  0  0  0  0  0
    2.8540    0.2630   -0.0660 C   0  0  0  0  0  0  0  0  0  0  0  0
    4.1990    0.3460    0.3380 C   0  0  0  0  0  0  0  0  0  0  0  0
    5.2390    0.5120   -0.5160 C   0  0  0  0  0  0  0  0  0  0  0  0
    4.9940    0.6080   -1.8690 C   0  0  0  0  0  0  0  0  0  0  0  0
    6.0420    0.7810   -2.7920 O   0  0  0  0  0  0  0  0  0  0  0  0
    6.4160    2.0440   -3.1100 O   0  0  0  0  0  0  0  0  0  0  0  0
    5.9650    2.9130   -2.2330 O   0  0  0  0  0  0  0  0  0  0  0  0
    6.8600    3.8590   -2.0340 O   0  0  0  0  0  0  0  0  0  0  0  0
    3.7000    0.5340   -2.3220 C   0  0  0  0  0  0  0  0  0  0  0  0
    2.6520    0.3620   -1.4050 C   0  0  0  0  0  0  0  0  0  0  0  0
    1.7590   -1.1150    1.6480 N   0  0  0  0  0  0  0  0  0  0  0  0
    1.0360   -1.2610    2.8060 C   0  0  0  0  0  0  0  0  0  0  0  0
    1.2400   -2.5090    3.2770 C   0  0  0  0  0  0  0  0  0  0  0  0
    2.0590   -3.0990    2.4340 N   0  0  0  0  0  0  0  0  0  0  0  0
    2.3880   -2.2430    1.4200 C   0  0  0  0  0  0  0  0  0  0  0  0
    3.3010   -2.6130    0.3780 N   0  0  0  0  0  0  0  0  0  0  0  0
    3.1230   -3.0820   -0.9310 C   0  0  0  0  0  0  0  0  0  0  0  0
    4.0490   -2.6120   -1.7440 O   0  0  0  0  0  0  0  0  0  0  0  0
    2.1920   -3.9470   -1.6070 C   0  0  0  0  0  0  0  0  0  0  0  0
    2.6450   -5.1420   -1.9950 O   0  0  0  0  0  0  0  0  0  0  0  0
    0.8320   -3.7970   -1.9710 N   0  0  0  0  0  0  0  0  0  0  0  0
  1  2  2  0
  2  3  1  0
  2 43  1  0
  3  4  1  0
  4  5  1  0
  5  6  1  6
  5 15  1  0
  5 19  1  0
  6  7  1  0
  7  8  1  0
  8  9  2  0
 10  8  1  6
 10 11  1  0
 10 14  1  0
 11 12  1  0
 12 13  1  0
 13 14  1  0
 15 16  1  0
 16 17  1  0
 17 18  1  0
 18 19  1  0
 19 20  1  0
 20 21  2  0
 20 22  1  0
 22 23  1  6
 22 33  1  0
 23 24  2  0
 23 32  1  0
 24 25  1  0
 25 26  2  0
 26 27  1  0
 26 31  1  0
 27 28  1  0
 28 29  1  0
 29 30  1  0
 31 32  2  0
 33 34  1  0
 33 37  1  0
 34 35  2  0
 35 36  1  0
 36 37  2  0
 37 38  1  0
 38 39  1  0
 39 40  2  0
 39 41  1  0
 41 42  2  0
 41 43  1  0
M  END
