
     RDKit          3D

 44 48  0  0  0  0  0  0  0  0999 V2000
    3.1210   -0.6910    2.2170 C   0  0  0  0  0  0  0  0  0  0  0  0
    3.2610   -0.3520    0.7360 C   0  0  1  0  0  0  0  0  0  0  0  0
    4.7530   -0.3160    0.4770 C   0  0  0  0  0  0  0  0  0  0  0  0
    5.4890    0.7250    0.9610 O   0  0  0  0  0  0  0  0  0  0  0  0
    5.4790    2.0390    0.5270 C   0  0  0  0  0  0  0  0  0  0  0  0
    4.7250    2.3650   -0.4450 O   0  0  0  0  0  0  0  0  0  0  0  0
    6.2400    3.0430    1.0800 O   0  0  0  0  0  0  0  0  0  0  0  0
    2.8180   -1.5890   -0.0770 C   0  0  0  0  0  0  0  0  0  0  0  0
    1.8210   -2.4450    0.6140 C   0  0  0  0  0  0  0  0  0  0  0  0
    1.0540   -3.1300   -0.3660 N   0  0  0  0  0  0  0  0  0  0  0  0
    1.6450   -4.2360   -1.0430 C   0  0  0  0  0  0  0  0  0  0  0  0
    1.0590   -4.9060   -1.9210 O   0  0  0  0  0  0  0  0  0  0  0  0
    2.9390   -4.5960   -0.7190 O   0  0  0  0  0  0  0  0  0  0  0  0
   -0.3520   -2.7750   -0.7630 C   0  0  2  0  0  0  0  0  0  0  0  0
   -0.1820   -2.0400   -2.0370 C   0  0  0  0  0  0  0  0  0  0  0  0
   -0.5540   -0.6250   -2.0580 C   0  0  0  0  0  0  0  0  0  0  0  0
    0.5830    0.2610   -2.0660 O   0  0  0  0  0  0  0  0  0  0  0  0
    0.4400    1.6470   -2.0940 C   0  0  0  0  0  0  0  0  0  0  0  0
    1.2050    2.2740   -2.8830 O   0  0  0  0  0  0  0  0  0  0  0  0
   -0.5300    2.4180   -1.2770 C   0  0  0  0  0  0  0  0  0  0  0  0
   -0.5200    2.4400    0.0380 C   0  0  0  0  0  0  0  0  0  0  0  0
    0.4370    1.8970    0.9350 N   0  0  0  0  0  0  0  0  0  0  0  0
    1.8480    1.7690    0.8960 C   0  0  0  0  0  0  0  0  0  0  0  0
    2.5350    2.7350    1.5260 O   0  0  0  0  0  0  0  0  0  0  0  0
    2.6290    0.7940    0.3070 O   0  0  0  0  0  0  0  0  0  0  0  0
   -1.7580    3.2300    0.4280 C   0  0  2  0  0  0  0  0  0  0  0  0
   -2.6800    2.4770    1.3040 C   0  0  0  0  0  0  0  0  0  0  0  0
   -2.5740    2.8200    2.5420 O   0  0  0  0  0  0  0  0  0  0  0  0
   -3.4960    1.5710    0.8170 O   0  0  0  0  0  0  0  0  0  0  0  0
   -3.9130    0.2890    0.8110 C   0  0  1  0  0  0  0  0  0  0  0  0
   -5.1220    0.2300    1.8000 C   0  0  0  0  0  0  0  0  0  0  0  0
   -4.5490   -0.2130   -0.4590 C   0  0  0  0  0  0  0  0  0  0  0  0
   -4.4620   -1.6530   -0.4640 O   0  0  0  0  0  0  0  0  0  0  0  0
   -3.1440   -2.1420   -0.5080 C   0  0  0  0  0  0  0  0  0  0  0  0
   -2.7750   -2.9640   -1.3340 O   0  0  0  0  0  0  0  0  0  0  0  0
   -2.2220   -1.6140    0.5080 N   0  0  0  0  0  0  0  0  0  0  0  0
   -0.8850   -2.0580    0.4170 C   0  0  0  0  0  0  0  0  0  0  0  0
   -2.8850   -0.7030    1.3580 C   0  0  0  0  0  0  0  0  0  0  0  0
   -2.8330   -0.4790    2.6190 O   0  0  0  0  0  0  0  0  0  0  0  0
   -2.3100    3.7330   -0.7740 N   0  0  0  0  0  0  0  0  0  0  0  0
   -3.3070    4.5160   -1.2070 C   0  0  0  0  0  0  0  0  0  0  0  0
   -3.2900    4.5230   -2.5480 N   0  0  0  0  0  0  0  0  0  0  0  0
   -2.2890    3.7500   -2.8980 N   0  0  0  0  0  0  0  0  0  0  0  0
   -1.6520    3.2400   -1.8040 C   0  0  0  0  0  0  0  0  0  0  0  0
  2  1  1  1
  2  3  1  0
  2  8  1  0
  2 25  1  0
  3  4  1  0
  4  5  1  0
  5  6  2  0
  5  7  1  0
  8  9  1  0
  9 10  1  0
 10 11  1  0
 10 14  1  0
 11 12  2  0
 11 13  1  0
 14 15  1  0
 14 37  1  1
 15 16  1  0
 16 17  1  0
 17 18  1  0
 18 19  2  0
 18 20  1  0
 20 21  2  0
 20 44  1  0
 21 22  1  0
 21 26  1  0
 22 23  1  0
 23 24  2  0
 23 25  1  0
 26 27  1  0
 26 40  1  6
 27 28  2  0
 27 29  1  0
 29 30  1  0
 30 31  1  1
 30 32  1  0
 30 38  1  0
 32 33  1  0
 33 34  1  0
 34 35  2  0
 34 36  1  0
 36 37  1  0
 36 38  1  0
 38 39  2  0
 40 41  1  0
 40 44  1  0
 41 42  2  0
 42 43  1  0
 43 44  2  0
M  END
