
     RDKit          3D

 43 47  0  0  0  0  0  0  0  0999 V2000
   -5.5930    0.5950   -2.1490 O   0  0  0  0  0  0  0  0  0  0  0  0
   -6.5970   -0.1670   -2.0780 C   0  0  0  0  0  0  0  0  0  0  0  0
   -6.4980   -1.3890   -1.2730 C   0  0  0  0  0  0  0  0  0  0  0  0
   -5.4050   -1.3010   -0.2920 C   0  0  1  0  0  0  0  0  0  0  0  0
   -4.1100   -1.0760   -0.7780 O   0  0  0  0  0  0  0  0  0  0  0  0
   -2.9010   -0.9310   -0.1790 C   0  0  0  0  0  0  0  0  0  0  0  0
   -2.0170   -2.0070   -0.0140 C   0  0  0  0  0  0  0  0  0  0  0  0
   -0.8220   -1.8580    0.5950 C   0  0  0  0  0  0  0  0  0  0  0  0
   -0.4020   -0.6310    1.0940 C   0  0  0  0  0  0  0  0  0  0  0  0
    0.8380   -0.5490    1.7270 N   0  0  0  0  0  0  0  0  0  0  0  0
    1.9590   -1.1560    0.9070 C   0  0  0  0  0  0  0  0  0  0  0  0
    1.7160   -1.5410   -0.1900 O   0  0  0  0  0  0  0  0  0  0  0  0
    3.1030   -1.1120    1.7270 N   0  0  0  0  0  0  0  0  0  0  0  0
    4.1450   -2.0560    0.6720 C   0  0  0  0  0  0  0  0  0  0  0  0
    3.5940   -2.4230   -0.2750 O   0  0  0  0  0  0  0  0  0  0  0  0
    5.4440   -2.1530    1.2440 C   0  0  0  0  0  0  0  0  0  0  0  0
    5.7570   -2.8600    2.4170 C   0  0  0  0  0  0  0  0  0  0  0  0
    7.0660   -2.7280    2.6680 N   0  0  0  0  0  0  0  0  0  0  0  0
    7.5780   -1.9810    1.7160 N   0  0  0  0  0  0  0  0  0  0  0  0
    8.7430   -1.4320    1.2770 C   0  0  0  0  0  0  0  0  0  0  0  0
    8.4890   -0.7270    0.1290 C   0  0  0  0  0  0  0  0  0  0  0  0
    9.3850    0.0480   -0.7540 C   0  0  2  0  0  0  0  0  0  0  0  0
   10.7120    0.3130   -0.0960 C   0  0  0  0  0  0  0  0  0  0  0  0
   10.5320    1.6350    0.3540 O   0  0  0  0  0  0  0  0  0  0  0  0
    9.9640    2.1780   -0.8200 C   0  0  0  0  0  0  0  0  0  0  0  0
    8.8810    1.3110   -1.0410 O   0  0  0  0  0  0  0  0  0  0  0  0
    7.1820   -0.8670   -0.0980 O   0  0  0  0  0  0  0  0  0  0  0  0
    6.6500   -1.6060    0.8340 C   0  0  0  0  0  0  0  0  0  0  0  0
   -1.2320    0.4210    0.9410 C   0  0  0  0  0  0  0  0  0  0  0  0
   -2.4780    0.3040    0.3100 C   0  0  0  0  0  0  0  0  0  0  0  0
   -3.1780    1.5900    0.1150 C   0  0  0  0  0  0  0  0  0  0  0  0
   -4.1060    1.9000    1.0480 O   0  0  0  0  0  0  0  0  0  0  0  0
   -4.6110    3.1470    0.8120 C   0  0  0  0  0  0  0  0  0  0  0  0
   -5.8560    3.2000   -0.0000 C   0  0  0  0  0  0  0  0  0  0  0  0
   -6.9610    2.5670    0.4790 O   0  0  0  0  0  0  0  0  0  0  0  0
   -7.3790    1.3050    0.7370 C   0  0  0  0  0  0  0  0  0  0  0  0
   -8.6180    1.1290    0.3110 O   0  0  0  0  0  0  0  0  0  0  0  0
   -6.7380    0.2070    1.3580 N   0  0  0  0  0  0  0  0  0  0  0  0
   -5.6890   -0.6250    0.9810 C   0  0  0  0  0  0  0  0  0  0  0  0
   -4.7350   -0.9260    1.8250 O   0  0  0  0  0  0  0  0  0  0  0  0
   -7.7700    0.2200   -2.7940 N   0  0  0  0  0  0  0  0  0  0  0  0
   -7.7780    1.3590   -3.5120 O   0  0  0  0  0  0  0  0  0  0  0  0
   -8.4520    2.3110   -2.8890 O   0  0  0  0  0  0  0  0  0  0  0  0
  1  2  2  0
  2  3  1  0
  2 41  1  0
  4  3  1  6
  4  5  1  0
  4 39  1  0
  5  6  1  0
  6  7  2  0
  6 30  1  0
  7  8  1  0
  8  9  2  0
  9 10  1  0
  9 29  1  0
 10 11  1  0
 11 12  2  0
 11 13  1  0
 13 14  1  0
 14 15  2  0
 14 16  1  0
 16 17  1  0
 16 28  2  0
 17 18  2  0
 18 19  1  0
 19 20  1  0
 19 28  1  0
 20 21  2  0
 22 21  1  1
 21 27  1  0
 22 23  1  0
 22 26  1  0
 23 24  1  0
 24 25  1  0
 25 26  1  0
 27 28  1  0
 29 30  2  0
 30 31  1  0
 31 32  1  0
 32 33  1  0
 33 34  1  0
 34 35  1  0
 35 36  1  0
 36 37  2  0
 36 38  1  0
 38 39  1  0
 39 40  2  0
 41 42  1  0
 42 43  1  0
M  END
