
     RDKit          3D

 43 45  0  0  0  0  0  0  0  0999 V2000
    4.8700    0.2440   -1.1380 C   0  0  0  0  0  0  0  0  0  0  0  0
    4.3580    0.0090    0.2820 C   0  0  2  0  0  0  0  0  0  0  0  0
    5.3380   -1.0090    0.8860 C   0  0  0  0  0  0  0  0  0  0  0  0
    3.0650   -0.4970    0.2930 O   0  0  0  0  0  0  0  0  0  0  0  0
    1.9230    0.0780   -0.2110 C   0  0  0  0  0  0  0  0  0  0  0  0
    2.0230    1.1960   -0.7280 O   0  0  0  0  0  0  0  0  0  0  0  0
    0.6120   -0.7040   -0.1030 C   0  0  2  0  0  0  0  0  0  0  0  0
    0.9980   -2.0020   -0.8270 C   0  0  0  0  0  0  0  0  0  0  0  0
    1.2400   -1.5910   -2.2620 C   0  0  0  0  0  0  0  0  0  0  0  0
   -0.0500   -1.2140   -2.8030 N   0  0  0  0  0  0  0  0  0  0  0  0
   -0.6690   -0.0710   -2.1800 C   0  0  0  0  0  0  0  0  0  0  0  0
   -0.5360    0.0250   -0.6920 C   0  0  2  0  0  0  0  0  0  0  0  0
   -0.1990    1.5000   -0.4240 C   0  0  0  0  0  0  0  0  0  0  0  0
   -0.1470    2.3470   -1.3330 O   0  0  0  0  0  0  0  0  0  0  0  0
    0.0400    1.7950    0.9400 N   0  0  0  0  0  0  0  0  0  0  0  0
    0.3630    3.1340    1.3580 C   0  0  0  0  0  0  0  0  0  0  0  0
    0.5770    3.2450    2.8410 C   0  0  0  0  0  0  0  0  0  0  0  0
   -0.5170    2.8860    3.6060 O   0  0  0  0  0  0  0  0  0  0  0  0
   -1.8210   -0.2360    0.0070 C   0  0  0  0  0  0  0  0  0  0  0  0
   -2.4930    0.9790    0.4160 N   0  0  0  0  0  0  0  0  0  0  0  0
   -2.9060    1.2550    1.5850 C   0  0  0  0  0  0  0  0  0  0  0  0
   -2.7110    0.3360    2.5980 O   0  0  0  0  0  0  0  0  0  0  0  0
   -3.5890    2.5230    1.9010 C   0  0  0  0  0  0  0  0  0  0  0  0
   -3.7480    3.3580    0.7190 N   0  0  0  0  0  0  0  0  0  0  0  0
   -4.3930    4.6070    0.9180 C   0  0  0  0  0  0  0  0  0  0  0  0
   -4.7970    4.9510    2.0630 O   0  0  0  0  0  0  0  0  0  0  0  0
   -4.6230    5.5190   -0.1080 O   0  0  0  0  0  0  0  0  0  0  0  0
   -2.3930   -1.3040    0.2070 N   0  0  0  0  0  0  0  0  0  0  0  0
   -2.3020   -2.6580   -0.0060 C   0  0  0  0  0  0  0  0  0  0  0  0
   -2.1670   -3.6730    0.9160 C   0  0  0  0  0  0  0  0  0  0  0  0
   -2.0770   -5.0090    0.5900 C   0  0  0  0  0  0  0  0  0  0  0  0
   -2.1270   -5.3200   -0.7560 C   0  0  0  0  0  0  0  0  0  0  0  0
   -2.2610   -4.3380   -1.7030 C   0  0  0  0  0  0  0  0  0  0  0  0
   -2.3410   -3.0810   -1.3120 N   0  0  0  0  0  0  0  0  0  0  0  0
   -2.3130   -4.5910   -3.1570 C   0  0  0  0  0  0  0  0  0  0  0  0
   -2.1610   -5.8040   -3.4800 O   0  0  0  0  0  0  0  0  0  0  0  0
   -2.5140   -3.5680   -4.0610 O   0  0  0  0  0  0  0  0  0  0  0  0
   -1.8780   -2.3910   -4.0030 O   0  0  0  0  0  0  0  0  0  0  0  0
   -0.6380   -1.9360   -3.8950 C   0  0  0  0  0  0  0  0  0  0  0  0
    0.2170   -2.1210   -4.8530 O   0  0  0  0  0  0  0  0  0  0  0  0
    4.5670    1.2620    1.0350 C   0  0  0  0  0  0  0  0  0  0  0  0
    5.6860    1.8250    1.1200 O   0  0  0  0  0  0  0  0  0  0  0  0
    3.5000    1.8520    1.6780 O   0  0  0  0  0  0  0  0  0  0  0  0
  2  1  1  6
  2  3  1  0
  2  4  1  0
  2 41  1  0
  4  5  1  0
  5  6  2  0
  7  5  1  6
  7  8  1  0
  7 12  1  0
  8  9  1  0
  9 10  1  0
 10 11  1  0
 10 39  1  0
 11 12  1  0
 12 13  1  6
 12 19  1  0
 13 14  2  0
 13 15  1  0
 15 16  1  0
 16 17  1  0
 17 18  1  0
 19 20  1  0
 19 28  2  0
 20 21  2  3
 21 22  1  0
 21 23  1  0
 23 24  1  0
 24 25  1  0
 25 26  2  0
 25 27  1  0
 28 29  1  0
 29 30  2  0
 29 34  1  0
 30 31  1  0
 31 32  2  0
 32 33  1  0
 33 34  2  0
 33 35  1  0
 35 36  2  0
 35 37  1  0
 37 38  1  0
 38 39  1  0
 39 40  2  0
 41 42  2  0
 41 43  1  0
M  END
