
     RDKit          3D

 43 46  0  0  0  0  0  0  0  0999 V2000
    0.6680    7.1240    2.2220 C   0  0  0  0  0  0  0  0  0  0  0  0
    0.7370    5.6290    2.0740 C   0  0  0  0  0  0  0  0  0  0  0  0
    1.2070    5.2720    0.7650 O   0  0  0  0  0  0  0  0  0  0  0  0
    1.3230    3.8880    0.4800 C   0  0  0  0  0  0  0  0  0  0  0  0
    1.0110    3.0730    1.3800 O   0  0  0  0  0  0  0  0  0  0  0  0
    1.7590    3.4430   -0.7290 O   0  0  0  0  0  0  0  0  0  0  0  0
    1.8910    2.1340   -1.1420 C   0  0  0  0  0  0  0  0  0  0  0  0
    0.7030    1.3330   -1.4780 C   0  0  1  0  0  0  0  0  0  0  0  0
    0.9780   -0.0990   -1.7980 C   0  0  0  0  0  0  0  0  0  0  0  0
    1.6180   -0.8800   -0.7050 C   0  0  0  0  0  0  0  0  0  0  0  0
    1.8280   -2.1870   -1.0810 O   0  0  0  0  0  0  0  0  0  0  0  0
    2.6370   -2.3730   -2.1710 C   0  0  0  0  0  0  0  0  0  0  0  0
    4.0290   -1.8130   -1.9780 C   0  0  0  0  0  0  0  0  0  0  0  0
    4.6210   -2.4620   -0.8730 O   0  0  0  0  0  0  0  0  0  0  0  0
    5.9270   -2.1210   -0.4780 C   0  0  0  0  0  0  0  0  0  0  0  0
    6.5000   -1.2400   -1.1470 O   0  0  0  0  0  0  0  0  0  0  0  0
    6.5290   -2.7560    0.6170 N   0  0  0  0  0  0  0  0  0  0  0  0
    7.8650   -2.4200    1.0420 C   0  0  0  0  0  0  0  0  0  0  0  0
    7.9110   -0.9750    1.4520 C   0  0  0  0  0  0  0  0  0  0  0  0
    6.9920   -0.8350    2.5080 O   0  0  0  0  0  0  0  0  0  0  0  0
   -0.4940    1.4770   -0.5280 C   0  0  0  0  0  0  0  0  0  0  0  0
   -1.6120    0.9260   -1.3320 N   0  0  0  0  0  0  0  0  0  0  0  0
   -2.7380    0.1820   -0.9840 C   0  0  0  0  0  0  0  0  0  0  0  0
   -3.4900   -0.1780   -1.9810 O   0  0  0  0  0  0  0  0  0  0  0  0
   -3.1820   -0.2350    0.2690 N   0  0  0  0  0  0  0  0  0  0  0  0
   -2.6570    0.0370    1.5650 C   0  0  0  0  0  0  0  0  0  0  0  0
   -2.0580   -1.2300    2.1300 C   0  0  0  0  0  0  0  0  0  0  0  0
   -2.9800   -2.2640    1.9790 O   0  0  0  0  0  0  0  0  0  0  0  0
   -4.2560   -1.8510    1.6790 C   0  0  0  0  0  0  0  0  0  0  0  0
   -4.3710   -1.1300    0.3420 C   0  0  1  0  0  0  0  0  0  0  0  0
   -5.6170   -0.3150    0.3000 C   0  0  0  0  0  0  0  0  0  0  0  0
   -6.7620   -1.0380    0.7830 O   0  0  0  0  0  0  0  0  0  0  0  0
   -7.3920   -2.0790    0.0740 C   0  0  0  0  0  0  0  0  0  0  0  0
   -8.6870   -2.5080    0.1990 C   0  0  0  0  0  0  0  0  0  0  0  0
   -8.8500   -3.4960   -0.6490 O   0  0  0  0  0  0  0  0  0  0  0  0
   -7.7360   -3.7220   -1.3090 N   0  0  0  0  0  0  0  0  0  0  0  0
   -6.7920   -2.8660   -0.8970 C   0  0  0  0  0  0  0  0  0  0  0  0
   -5.4350   -2.7620   -1.3460 N   0  0  0  0  0  0  0  0  0  0  0  0
   -4.3140   -2.1650   -0.7000 C   0  0  0  0  0  0  0  0  0  0  0  0
   -3.2250   -2.6180   -1.1130 O   0  0  0  0  0  0  0  0  0  0  0  0
   -1.2740    1.3950   -2.6570 C   0  0  0  0  0  0  0  0  0  0  0  0
   -2.0200    1.3330   -3.6480 O   0  0  0  0  0  0  0  0  0  0  0  0
    0.0460    1.9390   -2.6520 N   0  0  0  0  0  0  0  0  0  0  0  0
  1  2  1  0
  2  3  1  0
  3  4  1  0
  4  5  2  0
  4  6  1  0
  6  7  1  0
  8  7  1  1
  8  9  1  0
  8 21  1  0
  8 43  1  0
  9 10  1  0
 10 11  1  0
 11 12  1  0
 12 13  1  0
 13 14  1  0
 14 15  1  0
 15 16  2  0
 15 17  1  0
 17 18  1  0
 18 19  1  0
 19 20  1  0
 21 22  1  0
 22 23  1  0
 22 41  1  0
 23 24  2  0
 23 25  1  0
 25 26  1  0
 25 30  1  0
 26 27  1  0
 27 28  1  0
 28 29  1  0
 30 29  1  1
 30 31  1  0
 30 39  1  0
 31 32  1  0
 32 33  1  0
 33 34  2  0
 33 37  1  0
 34 35  1  0
 35 36  1  0
 36 37  2  0
 37 38  1  0
 38 39  1  0
 39 40  2  0
 41 42  2  0
 41 43  1  0
M  END
