
     RDKit          3D

 43 45  0  0  0  0  0  0  0  0999 V2000
    0.8480    0.9770    0.7880 C   0  0  0  0  0  0  0  0  0  0  0  0
   -0.5250    1.5800    0.5920 C   0  0  1  0  0  0  0  0  0  0  0  0
   -1.2860    1.2330    1.8400 C   0  0  0  0  0  0  0  0  0  0  0  0
   -2.7070    1.6040    1.8750 C   0  0  0  0  0  0  0  0  0  0  0  0
   -3.5050    0.5190    1.3160 N   0  0  0  0  0  0  0  0  0  0  0  0
   -4.8210    0.3010    1.8610 C   0  0  0  0  0  0  0  0  0  0  0  0
   -5.9210    1.0860    1.2600 C   0  0  0  0  0  0  0  0  0  0  0  0
   -6.1850    0.8770   -0.1950 C   0  0  0  0  0  0  0  0  0  0  0  0
   -6.5500   -0.4290   -0.5030 O   0  0  0  0  0  0  0  0  0  0  0  0
   -6.7530   -0.4780   -1.8070 O   0  0  0  0  0  0  0  0  0  0  0  0
   -3.0500   -0.3080    0.2570 C   0  0  0  0  0  0  0  0  0  0  0  0
   -3.7410   -1.3640    0.1250 O   0  0  0  0  0  0  0  0  0  0  0  0
   -1.9300   -0.1630   -0.7090 N   0  0  0  0  0  0  0  0  0  0  0  0
   -2.0040   -1.3340   -1.4960 C   0  0  0  0  0  0  0  0  0  0  0  0
   -1.4170   -2.6230   -1.0950 C   0  0  2  0  0  0  0  0  0  0  0  0
   -2.3120   -3.7380   -1.4180 N   0  0  0  0  0  0  0  0  0  0  0  0
   -1.9060   -4.6800   -2.3850 C   0  0  0  0  0  0  0  0  0  0  0  0
   -0.8090   -4.6280   -2.9990 O   0  0  0  0  0  0  0  0  0  0  0  0
   -2.7220   -5.7760   -2.7390 O   0  0  0  0  0  0  0  0  0  0  0  0
   -0.9060   -2.8540    0.2640 C   0  0  0  0  0  0  0  0  0  0  0  0
    0.5760   -2.4670    0.3440 C   0  0  0  0  0  0  0  0  0  0  0  0
    1.4150   -3.6110   -0.1460 C   0  0  0  0  0  0  0  0  0  0  0  0
    2.7620   -3.2630   -0.2540 O   0  0  0  0  0  0  0  0  0  0  0  0
    2.9940   -1.8990   -0.1930 C   0  0  0  0  0  0  0  0  0  0  0  0
    4.4460   -1.5710    0.0500 C   0  0  0  0  0  0  0  0  0  0  0  0
    5.0400   -0.7290   -0.9550 N   0  0  0  0  0  0  0  0  0  0  0  0
    5.4860    0.6050   -0.8000 C   0  0  0  0  0  0  0  0  0  0  0  0
    6.7500    0.8190   -1.0380 O   0  0  0  0  0  0  0  0  0  0  0  0
    4.6970    1.7540   -0.4090 C   0  0  0  0  0  0  0  0  0  0  0  0
    3.5220    2.0670   -0.8810 O   0  0  0  0  0  0  0  0  0  0  0  0
    3.0750    3.1560   -0.3340 N   0  0  0  0  0  0  0  0  0  0  0  0
    3.9590    3.6310    0.5550 C   0  0  0  0  0  0  0  0  0  0  0  0
    3.9220    4.6450    1.2930 O   0  0  0  0  0  0  0  0  0  0  0  0
    5.0150    2.7480    0.5270 C   0  0  0  0  0  0  0  0  0  0  0  0
    6.2010    2.8720    1.3200 N   0  0  0  0  0  0  0  0  0  0  0  0
    7.2920    3.6150    0.7810 C   0  0  0  0  0  0  0  0  0  0  0  0
    7.1660    4.1270   -0.3610 O   0  0  0  0  0  0  0  0  0  0  0  0
    1.7830    3.6540   -0.7610 C   0  0  0  0  0  0  0  0  0  0  0  0
    0.7520    3.7180    0.2760 C   0  0  0  0  0  0  0  0  0  0  0  0
    0.9330    4.6710    1.1320 O   0  0  0  0  0  0  0  0  0  0  0  0
   -0.3430    2.9510    0.4740 O   0  0  0  0  0  0  0  0  0  0  0  0
   -1.1310    0.9780   -0.6550 C   0  0  0  0  0  0  0  0  0  0  0  0
   -0.7580    1.7360   -1.6330 O   0  0  0  0  0  0  0  0  0  0  0  0
  2  1  1  1
  2  3  1  0
  2 41  1  0
  2 42  1  0
  3  4  1  0
  4  5  1  0
  5  6  1  0
  5 11  1  0
  6  7  1  0
  7  8  1  0
  8  9  1  0
  9 10  1  0
 11 12  2  0
 11 13  1  0
 13 14  1  0
 13 42  1  0
 14 15  1  0
 15 16  1  1
 15 20  1  0
 16 17  1  0
 17 18  2  0
 17 19  1  0
 20 21  1  0
 21 22  1  0
 22 23  1  0
 23 24  1  0
 24 25  1  0
 25 26  1  0
 26 27  1  0
 27 28  2  0
 27 29  1  0
 29 30  1  0
 29 34  2  0
 30 31  1  0
 31 32  1  0
 31 38  1  0
 32 33  2  0
 32 34  1  0
 34 35  1  0
 35 36  1  0
 36 37  2  0
 38 39  1  0
 39 40  2  0
 39 41  1  0
 42 43  2  0
M  END
