
     RDKit          3D

 19 19  0  0  0  0  0  0  0  0999 V2000
   -5.9790   -1.2190    0.4070 C   0  0  0  0  0  0  0  0  0  0  0  0
   -5.0990   -0.3710    1.1480 O   0  0  0  0  0  0  0  0  0  0  0  0
   -3.9300    0.1210    0.6200 C   0  0  0  0  0  0  0  0  0  0  0  0
   -3.6430   -0.2070   -0.5740 O   0  0  0  0  0  0  0  0  0  0  0  0
   -2.9850    1.0110    1.3610 C   0  0  0  0  0  0  0  0  0  0  0  0
   -1.5640    1.4420    0.3540 S   0  0  0  0  0  0  0  0  0  0  0  0
   -0.5950   -0.0170    0.0590 C   0  0  0  0  0  0  0  0  0  0  0  0
   -1.0190   -1.4340    0.7270 S   0  0  0  0  0  0  0  0  0  0  0  0
    0.5630    0.0440   -0.7560 N   0  0  0  0  0  0  0  0  0  0  0  0
    0.9770    1.2560   -1.3660 C   0  0  0  0  0  0  0  0  0  0  0  0
    0.2600    2.2690   -1.1470 O   0  0  0  0  0  0  0  0  0  0  0  0
    2.1710    1.3700   -2.2220 C   0  0  0  0  0  0  0  0  0  0  0  0
    3.1800   -0.1110   -2.2160 S   0  0  0  0  0  0  0  0  0  0  0  0
    4.0240   -0.3380   -0.6510 C   0  0  0  0  0  0  0  0  0  0  0  0
    5.2550    0.1520   -0.3290 N   0  0  0  0  0  0  0  0  0  0  0  0
    5.5710   -0.2050    0.8990 N   0  0  0  0  0  0  0  0  0  0  0  0
    4.5650   -0.9320    1.4100 C   0  0  0  0  0  0  0  0  0  0  0  0
    4.4980   -1.4570    2.5750 O   0  0  0  0  0  0  0  0  0  0  0  0
    3.6180   -1.0030    0.4380 N   0  0  0  0  0  0  0  0  0  0  0  0
  1  2  1  0
  2  3  1  0
  3  4  2  0
  3  5  1  0
  5  6  1  0
  6  7  1  0
  7  8  2  0
  7  9  1  0
  9 10  1  0
 10 11  2  0
 10 12  1  0
 12 13  1  0
 13 14  1  0
 14 15  2  0
 14 19  1  0
 15 16  1  0
 16 17  1  0
 17 18  2  0
 17 19  1  0
M  END
