
     RDKit          3D

 19 20  0  0  0  0  0  0  0  0999 V2000
    3.1220   -2.1030   -1.1230 O   0  0  0  0  0  0  0  0  0  0  0  0
    3.3550   -0.9820   -0.6080 C   0  0  0  0  0  0  0  0  0  0  0  0
    4.5990   -0.5000   -0.5450 N   0  0  0  0  0  0  0  0  0  0  0  0
    4.8440    0.6850    0.0000 C   0  0  0  0  0  0  0  0  0  0  0  0
    6.3910    1.2260    0.0510 S   0  0  0  0  0  0  0  0  0  0  0  0
    3.8930    1.4700    0.5150 N   0  0  0  0  0  0  0  0  0  0  0  0
    2.6340    1.0030    0.4610 C   0  0  0  0  0  0  0  0  0  0  0  0
    2.3510   -0.2210   -0.0980 C   0  0  0  0  0  0  0  0  0  0  0  0
    0.9280   -0.6510   -0.1110 C   0  0  0  0  0  0  0  0  0  0  0  0
   -0.1440   -0.3230    0.1970 N   0  0  0  0  0  0  0  0  0  0  0  0
   -1.3020   -0.9120    0.0690 C   0  0  0  0  0  0  0  0  0  0  0  0
   -2.6670   -0.4110    0.5020 C   0  0  0  0  0  0  0  0  0  0  0  0
   -3.2280    0.3060   -0.6250 N   0  0  0  0  0  0  0  0  0  0  0  0
   -4.7760    0.9270   -0.2730 S   0  0  1  0  0  0  0  0  0  0  0  0
   -5.5390    1.0340   -1.5820 O   0  0  0  0  0  0  0  0  0  0  0  0
   -5.4830   -0.0330    0.6440 O   0  0  0  0  0  0  0  0  0  0  0  0
   -4.7170    2.4720    0.3730 O   0  0  0  0  0  0  0  0  0  0  0  0
   -1.2450   -2.1610   -0.5490 C   0  0  0  0  0  0  0  0  0  0  0  0
    0.5580   -2.3370   -0.8840 S   0  0  0  0  0  0  0  0  0  0  0  0
  1  2  2  0
  2  3  1  0
  2  8  1  0
  3  4  1  0
  4  5  2  0
  4  6  1  0
  6  7  1  0
  7  8  2  0
  8  9  1  0
  9 10  2  0
  9 19  1  0
 10 11  1  0
 11 12  1  0
 11 18  2  0
 12 13  1  0
 13 14  1  0
 14 15  2  0
 14 16  2  0
 14 17  1  1
 18 19  1  0
M  END
