
     RDKit          3D

 19 20  0  0  0  0  0  0  0  0999 V2000
    5.6780   -1.4620    0.2690 C   0  0  0  0  0  0  0  0  0  0  0  0
    4.4060   -0.7310    0.4800 C   0  0  0  0  0  0  0  0  0  0  0  0
    3.8870   -0.0320    1.3020 N   0  0  0  0  0  0  0  0  0  0  0  0
    2.6960    0.5080    1.2340 C   0  0  0  0  0  0  0  0  0  0  0  0
    1.9670    0.2590    0.1260 C   0  0  0  0  0  0  0  0  0  0  0  0
    0.6270    0.6670   -0.3190 C   0  0  0  0  0  0  0  0  0  0  0  0
    0.0560    1.4950    0.6920 N   0  0  0  0  0  0  0  0  0  0  0  0
   -1.5080    2.0380    0.2960 S   0  0  1  0  0  0  0  0  0  0  0  0
   -2.0360    2.9180    1.4030 O   0  0  0  0  0  0  0  0  0  0  0  0
   -1.4450    2.7860   -1.0030 O   0  0  0  0  0  0  0  0  0  0  0  0
   -2.6040    0.6390    0.1110 C   0  0  0  0  0  0  0  0  0  0  0  0
   -3.2900    0.1420    1.0980 C   0  0  0  0  0  0  0  0  0  0  0  0
   -4.1120   -0.9550    0.8170 N   0  0  0  0  0  0  0  0  0  0  0  0
   -4.0860   -1.1520   -0.8910 S   0  0  2  0  0  0  0  0  0  0  0  0
   -5.3540   -0.6780   -1.5350 O   0  0  0  0  0  0  0  0  0  0  0  0
   -3.7200   -2.5350   -1.3070 O   0  0  0  0  0  0  0  0  0  0  0  0
   -2.7780   -0.0180   -1.1750 C   0  0  0  0  0  0  0  0  0  0  0  0
   -2.1200    0.1880   -2.2730 N   0  0  0  0  0  0  0  0  0  0  0  0
    3.0980   -0.8020   -0.8180 S   0  0  0  0  0  0  0  0  0  0  0  0
  1  2  1  0
  2  3  2  0
  2 19  1  0
  3  4  1  0
  4  5  2  0
  5  6  1  0
  5 19  1  0
  6  7  1  0
  8  7  1  1
  8  9  2  0
  8 10  2  0
  8 11  1  0
 11 12  2  0
 11 17  1  0
 12 13  1  0
 14 13  1  1
 14 15  2  0
 14 16  2  0
 14 17  1  0
 17 18  2  0
M  END
