
     RDKit          3D

 11 12  0  0  0  0  0  0  0  0999 V2000
    3.1090   -1.0150   -0.1370 C   0  0  0  0  0  0  0  0  0  0  0  0
    1.8010   -0.3240    0.0340 C   0  0  0  0  0  0  0  0  0  0  0  0
    0.5850   -0.8100   -0.0690 C   0  0  0  0  0  0  0  0  0  0  0  0
   -0.4040    0.1900    0.1720 N   0  0  0  0  0  0  0  0  0  0  0  0
   -1.7240    0.4340    0.2390 C   0  0  0  0  0  0  0  0  0  0  0  0
   -2.8380   -0.4950    0.0310 C   0  0  0  0  0  0  0  0  0  0  0  0
   -2.4560   -1.7760   -0.2720 O   0  0  0  0  0  0  0  0  0  0  0  0
   -1.8660    1.7670    0.5510 C   0  0  0  0  0  0  0  0  0  0  0  0
   -0.6550    2.2850    0.6630 N   0  0  0  0  0  0  0  0  0  0  0  0
    0.2500    1.3340    0.4340 C   0  0  0  0  0  0  0  0  0  0  0  0
    1.7190    1.1190    0.3720 C   0  0  0  0  0  0  0  0  0  0  0  0
  1  2  1  0
  2  3  2  0
  2 11  1  0
  3  4  1  0
  4  5  1  0
  4 10  1  0
  5  6  1  0
  5  8  2  0
  6  7  1  0
  8  9  1  0
  9 10  2  0
 10 11  1  0
M  END
