
     RDKit          3D

 11 12  0  0  0  0  0  0  0  0999 V2000
   -3.2970   -0.0740    0.2940 C   0  0  0  0  0  0  0  0  0  0  0  0
   -1.8050   -0.0720    0.2590 C   0  0  0  0  0  0  0  0  0  0  0  0
   -1.0360    1.0230    0.3690 N   0  0  0  0  0  0  0  0  0  0  0  0
    0.2550    0.6140    0.2900 C   0  0  0  0  0  0  0  0  0  0  0  0
    1.4370    1.2980    0.3420 C   0  0  0  0  0  0  0  0  0  0  0  0
    1.4620    2.6590    0.5010 O   0  0  0  0  0  0  0  0  0  0  0  0
    2.6200    0.6170    0.2330 C   0  0  0  0  0  0  0  0  0  0  0  0
    2.6520   -0.7590    0.0710 C   0  0  0  0  0  0  0  0  0  0  0  0
    1.4800   -1.4570    0.0170 C   0  0  0  0  0  0  0  0  0  0  0  0
    0.2890   -0.7720    0.1260 C   0  0  0  0  0  0  0  0  0  0  0  0
   -1.0060   -1.1470    0.1130 N   0  0  0  0  0  0  0  0  0  0  0  0
  1  2  1  0
  2  3  2  0
  2 11  1  0
  3  4  1  0
  4  5  2  0
  4 10  1  0
  5  6  1  0
  5  7  1  0
  7  8  2  0
  8  9  1  0
  9 10  2  0
 10 11  1  0
M  END
