
     RDKit          3D

 26 28  0  0  0  0  0  0  0  0999 V2000
   -4.5210   -4.3160    0.3510 C   0  0  0  0  0  0  0  0  0  0  0  0
   -3.4950   -3.2280    0.1770 C   0  0  0  0  0  0  0  0  0  0  0  0
   -2.4490   -3.4990   -0.4820 O   0  0  0  0  0  0  0  0  0  0  0  0
   -3.6840   -1.9380    0.7310 N   0  0  0  0  0  0  0  0  0  0  0  0
   -2.6530   -0.9170    0.5310 C   0  0  2  0  0  0  0  0  0  0  0  0
   -2.1570   -0.5320    1.8890 C   0  0  0  0  0  0  0  0  0  0  0  0
   -1.1360    0.4650    1.9130 N   0  0  0  0  0  0  0  0  0  0  0  0
    0.1080    0.2400    1.2690 C   0  0  0  0  0  0  0  0  0  0  0  0
    0.3070   -0.8430    0.6780 O   0  0  0  0  0  0  0  0  0  0  0  0
    1.0970    1.2420    1.3080 N   0  0  0  0  0  0  0  0  0  0  0  0
    2.3840    1.1750    0.7200 C   0  0  0  0  0  0  0  0  0  0  0  0
    3.1930    2.3060    0.8750 C   0  0  0  0  0  0  0  0  0  0  0  0
    4.4730    2.3310    0.3310 C   0  0  0  0  0  0  0  0  0  0  0  0
    4.9560    1.2470   -0.3620 C   0  0  0  0  0  0  0  0  0  0  0  0
    4.1880    0.1170   -0.5340 C   0  0  0  0  0  0  0  0  0  0  0  0
    2.9060    0.1290    0.0260 C   0  0  0  0  0  0  0  0  0  0  0  0
    4.9800   -0.8610   -1.3130 C   0  0  0  0  0  0  0  0  0  0  0  0
    6.3460   -0.4620   -0.9390 N   0  0  0  0  0  0  0  0  0  0  0  0
    6.2430    0.9820   -1.0370 C   0  0  0  0  0  0  0  0  0  0  0  0
   -3.2150    0.2520   -0.1700 C   0  0  0  0  0  0  0  0  0  0  0  0
   -4.4470    0.7710    0.2220 C   0  0  0  0  0  0  0  0  0  0  0  0
   -4.9360    1.8670   -0.4610 C   0  0  0  0  0  0  0  0  0  0  0  0
   -4.2510    2.4560   -1.5050 C   0  0  0  0  0  0  0  0  0  0  0  0
   -3.0320    1.9300   -1.8800 C   0  0  0  0  0  0  0  0  0  0  0  0
   -2.1500    2.6640   -3.2020 Cl  0  0  0  0  0  0  0  0  0  0  0  0
   -2.5210    0.8260   -1.2060 C   0  0  0  0  0  0  0  0  0  0  0  0
  1  2  1  0
  2  3  2  0
  2  4  1  0
  4  5  1  0
  5  6  1  1
  5 20  1  0
  6  7  1  0
  7  8  1  0
  8  9  2  0
  8 10  1  0
 10 11  1  0
 11 12  2  0
 11 16  1  0
 12 13  1  0
 13 14  2  0
 14 15  1  0
 14 19  1  0
 15 16  2  0
 15 17  1  0
 17 18  1  0
 18 19  1  0
 20 21  2  0
 20 26  1  0
 21 22  1  0
 22 23  2  0
 23 24  1  0
 24 25  1  0
 24 26  2  0
M  CHG  1  18   1
M  END
