
     RDKit          3D

 26 28  0  0  0  0  0  0  0  0999 V2000
    7.8360    0.1680   -0.2310 N   0  0  0  0  0  0  0  0  0  0  0  0
    6.4730    0.0820   -0.7250 C   0  0  0  0  0  0  0  0  0  0  0  0
    6.3200   -0.2400   -1.9980 C   0  0  0  0  0  0  0  0  0  0  0  0
    4.9700   -0.3390   -2.5110 C   0  0  0  0  0  0  0  0  0  0  0  0
    4.7180   -0.6420   -3.7290 O   0  0  0  0  0  0  0  0  0  0  0  0
    3.9060   -0.0950   -1.6640 N   0  0  0  0  0  0  0  0  0  0  0  0
    4.0050    0.5470   -0.3660 C   0  0  1  0  0  0  0  0  0  0  0  0
    3.0740   -0.2900    0.5190 C   0  0  0  0  0  0  0  0  0  0  0  0
    3.4910   -1.1770    1.2760 O   0  0  0  0  0  0  0  0  0  0  0  0
    1.6600   -0.0050    0.3950 N   0  0  0  0  0  0  0  0  0  0  0  0
    0.7200   -0.8240    1.1300 C   0  0  0  0  0  0  0  0  0  0  0  0
   -0.6960   -0.5420    0.7100 C   0  0  0  0  0  0  0  0  0  0  0  0
   -1.1380    0.8260    1.0700 C   0  0  0  0  0  0  0  0  0  0  0  0
   -2.5040    1.1170    0.6030 N   0  0  0  0  0  0  0  0  0  0  0  0
   -2.6000    1.3510   -0.7470 C   0  0  0  0  0  0  0  0  0  0  0  0
   -3.1900    0.3740   -1.6670 C   0  0  0  0  0  0  0  0  0  0  0  0
   -2.3500    0.0390   -3.1910 Cl  0  0  0  0  0  0  0  0  0  0  0  0
   -4.3090   -0.3050   -1.4820 C   0  0  0  0  0  0  0  0  0  0  0  0
   -5.1860   -0.2130   -0.3070 C   0  0  0  0  0  0  0  0  0  0  0  0
   -6.5160   -0.5710   -0.6040 C   0  0  0  0  0  0  0  0  0  0  0  0
   -7.4010   -0.5360    0.4280 C   0  0  0  0  0  0  0  0  0  0  0  0
   -7.0260   -0.1660    1.7120 C   0  0  0  0  0  0  0  0  0  0  0  0
   -5.7200    0.1770    1.9590 C   0  0  0  0  0  0  0  0  0  0  0  0
   -4.7700    0.1600    0.9500 C   0  0  0  0  0  0  0  0  0  0  0  0
   -3.4330    0.5250    1.4070 C   0  0  0  0  0  0  0  0  0  0  0  0
    5.4010    0.4090    0.2070 C   0  0  0  0  0  0  0  0  0  0  0  0
  1  2  1  0
  2  3  2  0
  2 26  1  0
  3  4  1  0
  4  5  2  0
  4  6  1  0
  6  7  1  0
  7  8  1  1
  7 26  1  0
  8  9  2  0
  8 10  1  0
 10 11  1  0
 11 12  1  0
 12 13  1  0
 13 14  1  0
 14 15  1  0
 14 25  1  0
 15 16  1  0
 16 17  1  0
 16 18  2  0
 18 19  1  0
 19 20  2  0
 19 24  1  0
 20 21  1  0
 21 22  2  0
 22 23  1  0
 23 24  2  0
 24 25  1  0
M  CHG  1   1   1
M  END
