
     RDKit          3D

 26 28  0  0  0  0  0  0  0  0999 V2000
   -6.3400    1.0930    0.6160 C   0  0  0  0  0  0  0  0  0  0  0  0
   -6.6210    0.1220   -0.4340 N   0  0  0  0  0  0  0  0  0  0  0  0
   -5.6600   -0.9330   -0.3750 C   0  0  0  0  0  0  0  0  0  0  0  0
   -4.2870   -0.3660   -0.1230 C   0  0  1  0  0  0  0  0  0  0  0  0
   -3.2240   -1.4120   -0.0460 C   0  0  0  0  0  0  0  0  0  0  0  0
   -1.9210   -0.7290    0.2060 C   0  0  0  0  0  0  0  0  0  0  0  0
   -0.9340   -1.4200    0.9230 C   0  0  0  0  0  0  0  0  0  0  0  0
    0.2610   -0.7970    1.1440 C   0  0  0  0  0  0  0  0  0  0  0  0
    1.2940   -1.5580    1.9120 C   0  0  0  0  0  0  0  0  0  0  0  0
    2.5040   -0.7830    2.0610 N   0  0  0  0  0  0  0  0  0  0  0  0
    3.4010   -0.6460    0.9310 C   0  0  0  0  0  0  0  0  0  0  0  0
    3.1010   -1.1990   -0.1290 O   0  0  0  0  0  0  0  0  0  0  0  0
    4.5940    0.1040    1.0420 N   0  0  0  0  0  0  0  0  0  0  0  0
    5.5490    0.3170    0.0240 C   0  0  0  0  0  0  0  0  0  0  0  0
    5.4770   -0.1330   -1.2550 C   0  0  0  0  0  0  0  0  0  0  0  0
    6.4910    0.1400   -2.1790 C   0  0  0  0  0  0  0  0  0  0  0  0
    7.5890    0.8760   -1.8050 C   0  0  0  0  0  0  0  0  0  0  0  0
    7.6560    1.3330   -0.5000 C   0  0  0  0  0  0  0  0  0  0  0  0
    9.0450    2.2800    0.0210 Cl  0  0  0  0  0  0  0  0  0  0  0  0
    6.6710    1.0680    0.4010 C   0  0  0  0  0  0  0  0  0  0  0  0
    0.5480    0.4750    0.7010 C   0  0  0  0  0  0  0  0  0  0  0  0
   -0.4110    1.1650   -0.0040 C   0  0  0  0  0  0  0  0  0  0  0  0
   -1.6230    0.5400   -0.2320 C   0  0  0  0  0  0  0  0  0  0  0  0
   -2.6290    1.2570   -0.9560 N   0  0  0  0  0  0  0  0  0  0  0  0
   -3.8720    0.6010   -1.1700 C   0  0  0  0  0  0  0  0  0  0  0  0
   -4.5370    0.8640   -2.2040 O   0  0  0  0  0  0  0  0  0  0  0  0
  1  2  1  0
  2  3  1  0
  4  3  1  6
  4  5  1  0
  4 25  1  0
  5  6  1  0
  6  7  2  0
  6 23  1  0
  7  8  1  0
  8  9  1  0
  8 21  2  0
  9 10  1  0
 10 11  1  0
 11 12  2  0
 11 13  1  0
 13 14  1  0
 14 15  2  0
 14 20  1  0
 15 16  1  0
 16 17  2  0
 17 18  1  0
 18 19  1  0
 18 20  2  0
 21 22  1  0
 22 23  2  0
 23 24  1  0
 24 25  1  0
 25 26  2  0
M  CHG  1   2   1
M  END
