
     RDKit          3D

 26 28  0  0  0  0  0  0  0  0999 V2000
   -3.4690   -0.9170   -4.1540 C   0  0  0  0  0  0  0  0  0  0  0  0
   -2.9020   -1.1460   -2.9120 O   0  0  0  0  0  0  0  0  0  0  0  0
   -3.6050   -1.1340   -1.7360 C   0  0  0  0  0  0  0  0  0  0  0  0
   -4.9670   -0.8880   -1.6790 C   0  0  0  0  0  0  0  0  0  0  0  0
   -5.6510   -0.8810   -0.4640 C   0  0  0  0  0  0  0  0  0  0  0  0
   -4.9480   -1.1230    0.6870 C   0  0  0  0  0  0  0  0  0  0  0  0
   -5.6410   -1.1220    2.0060 C   0  0  0  0  0  0  0  0  0  0  0  0
   -6.2690   -2.7060    2.4610 Cl  0  0  0  0  0  0  0  0  0  0  0  0
   -3.5690   -1.3710    0.6180 C   0  0  0  0  0  0  0  0  0  0  0  0
   -2.8720   -1.3840   -0.5630 C   0  0  0  0  0  0  0  0  0  0  0  0
   -1.4960   -1.6480   -0.6900 N   0  0  0  0  0  0  0  0  0  0  0  0
   -0.5780   -1.8250    0.3980 C   0  0  0  0  0  0  0  0  0  0  0  0
   -0.9460   -1.7480    1.5730 O   0  0  0  0  0  0  0  0  0  0  0  0
    0.8520   -2.1070    0.0230 C   0  0  0  0  0  0  0  0  0  0  0  0
    1.7700   -1.0240    0.4780 C   0  0  0  0  0  0  0  0  0  0  0  0
    2.4110   -1.0080    1.6930 C   0  0  0  0  0  0  0  0  0  0  0  0
    3.2560    0.0290    2.0380 C   0  0  0  0  0  0  0  0  0  0  0  0
    3.5090    1.1030    1.1990 C   0  0  0  0  0  0  0  0  0  0  0  0
    2.8690    1.0950   -0.0230 C   0  0  0  0  0  0  0  0  0  0  0  0
    2.0260    0.0610   -0.3680 C   0  0  0  0  0  0  0  0  0  0  0  0
    3.1180    2.1920   -0.8970 N   0  0  0  0  0  0  0  0  0  0  0  0
    4.0090    3.2600   -0.5020 C   0  0  0  0  0  0  0  0  0  0  0  0
    4.6390    3.8480   -1.3870 O   0  0  0  0  0  0  0  0  0  0  0  0
    4.0600    3.5260    0.9490 C   0  0  0  0  0  0  0  0  0  0  0  0
    4.4340    2.1920    1.6070 C   0  0  2  0  0  0  0  0  0  0  0  0
    5.8020    1.9370    1.2060 N   0  0  0  0  0  0  0  0  0  0  0  0
  1  2  1  0
  2  3  1  0
  3  4  2  0
  3 10  1  0
  4  5  1  0
  5  6  2  0
  6  7  1  0
  6  9  1  0
  7  8  1  0
  9 10  2  0
 10 11  1  0
 11 12  1  0
 12 13  2  0
 12 14  1  0
 14 15  1  0
 15 16  2  0
 15 20  1  0
 16 17  1  0
 17 18  2  0
 18 19  1  0
 18 25  1  0
 19 20  2  0
 19 21  1  0
 21 22  1  0
 22 23  2  0
 22 24  1  0
 24 25  1  0
 25 26  1  6
M  CHG  1  26   1
M  END
