
     RDKit          3D

 23 24  0  0  0  0  0  0  0  0999 V2000
    8.0550   -0.7730   -0.9030 C   0  0  0  0  0  0  0  0  0  0  0  0
    6.7930   -0.1040   -1.0520 O   0  0  0  0  0  0  0  0  0  0  0  0
    5.6230   -0.6460   -0.5460 C   0  0  0  0  0  0  0  0  0  0  0  0
    5.6570   -1.7320    0.0510 O   0  0  0  0  0  0  0  0  0  0  0  0
    4.3260    0.0480   -0.7020 C   0  0  0  0  0  0  0  0  0  0  0  0
    4.2560    1.2550   -1.3610 C   0  0  0  0  0  0  0  0  0  0  0  0
    3.0300    1.8660   -1.4820 C   0  0  0  0  0  0  0  0  0  0  0  0
    1.8780    1.2880   -0.9530 C   0  0  0  0  0  0  0  0  0  0  0  0
    0.6700    1.9420   -1.1010 O   0  0  0  0  0  0  0  0  0  0  0  0
    1.9310    0.0770   -0.2880 C   0  0  0  0  0  0  0  0  0  0  0  0
    0.6980   -0.4860    0.2440 C   0  0  0  0  0  0  0  0  0  0  0  0
    0.1850    0.1420    1.4970 C   0  0  0  0  0  0  0  0  0  0  0  0
   -1.0350   -0.5380    1.8760 N   0  0  0  0  0  0  0  0  0  0  0  0
   -2.2720   -0.4320    1.2130 C   0  0  0  0  0  0  0  0  0  0  0  0
   -2.5490    0.4340    0.1830 C   0  0  0  0  0  0  0  0  0  0  0  0
   -3.7840    0.5310   -0.4380 C   0  0  0  0  0  0  0  0  0  0  0  0
   -4.0380    1.4900   -1.5550 C   0  0  0  0  0  0  0  0  0  0  0  0
   -4.7960   -0.2890    0.0010 C   0  0  0  0  0  0  0  0  0  0  0  0
   -6.1400   -0.2130   -0.6470 C   0  0  0  0  0  0  0  0  0  0  0  0
   -4.5510   -1.1670    1.0320 C   0  0  0  0  0  0  0  0  0  0  0  0
   -3.3180   -1.2380    1.6240 C   0  0  0  0  0  0  0  0  0  0  0  0
   -3.1280   -2.2250    2.7450 C   0  0  0  0  0  0  0  0  0  0  0  0
    3.1800   -0.4980   -0.1920 C   0  0  0  0  0  0  0  0  0  0  0  0
  1  2  1  0
  2  3  1  0
  3  4  2  0
  3  5  1  0
  5  6  2  0
  5 23  1  0
  6  7  1  0
  7  8  2  0
  8  9  1  0
  8 10  1  0
 10 11  1  0
 10 23  2  0
 11 12  1  0
 12 13  1  0
 13 14  1  0
 14 15  2  0
 14 21  1  0
 15 16  1  0
 16 17  1  0
 16 18  2  0
 18 19  1  0
 18 20  1  0
 20 21  2  0
 21 22  1  0
M  END
