
     RDKit          3D

 24 27  0  0  0  0  0  0  0  0999 V2000
    5.5320    0.8470    1.6460 F   0  0  0  0  0  0  0  0  0  0  0  0
    5.5050    0.4330    0.3640 C   0  0  2  0  0  0  0  0  0  0  0  0
    6.2780   -0.6470    0.1120 F   0  0  0  0  0  0  0  0  0  0  0  0
    5.9270    1.4780   -0.4630 F   0  0  0  0  0  0  0  0  0  0  0  0
    4.0530    0.1210    0.0270 C   0  0  0  0  0  0  0  0  0  0  0  0
    3.5670    0.5220   -1.2020 C   0  0  0  0  0  0  0  0  0  0  0  0
    2.2360    0.2480   -1.4740 C   0  0  0  0  0  0  0  0  0  0  0  0
    1.3930   -0.3970   -0.5600 C   0  0  0  0  0  0  0  0  0  0  0  0
   -0.0380   -0.6170   -0.9250 C   0  0  2  0  0  0  0  0  0  0  0  0
   -0.9970   -0.0970    0.0990 N   0  0  0  0  0  0  0  0  0  0  0  0
   -2.3320   -0.4710   -0.0960 C   0  0  0  0  0  0  0  0  0  0  0  0
   -2.7720   -1.4910   -0.8390 N   0  0  0  0  0  0  0  0  0  0  0  0
   -4.0700   -1.8530   -0.9190 C   0  0  0  0  0  0  0  0  0  0  0  0
   -4.5900   -3.1940   -1.8920 Cl  0  0  0  0  0  0  0  0  0  0  0  0
   -5.0540   -1.1590   -0.2130 N   0  0  0  0  0  0  0  0  0  0  0  0
   -4.6520   -0.1310    0.5420 C   0  0  0  0  0  0  0  0  0  0  0  0
   -5.3730    0.7540    1.3010 N   0  0  0  0  0  0  0  0  0  0  0  0
   -4.5030    1.6240    1.8260 N   0  0  0  0  0  0  0  0  0  0  0  0
   -3.2530    1.3280    1.4270 C   0  0  0  0  0  0  0  0  0  0  0  0
   -3.3610    0.2080    0.6110 C   0  0  0  0  0  0  0  0  0  0  0  0
   -0.3500    0.4630   -2.0610 C   0  0  0  0  0  0  0  0  0  0  0  0
   -0.4550   -0.8700   -2.2720 C   0  0  0  0  0  0  0  0  0  0  0  0
    1.9120   -0.7690    0.6360 C   0  0  0  0  0  0  0  0  0  0  0  0
    3.2520   -0.5130    0.9430 C   0  0  0  0  0  0  0  0  0  0  0  0
  2  1  1  1
  2  3  1  0
  2  4  1  0
  2  5  1  0
  5  6  2  0
  5 24  1  0
  6  7  1  0
  7  8  2  0
  8  9  1  0
  8 23  1  0
  9 10  1  1
  9 21  1  0
  9 22  1  0
 10 11  1  0
 11 12  2  0
 11 20  1  0
 12 13  1  0
 13 14  1  0
 13 15  2  0
 15 16  1  0
 16 17  2  0
 16 20  1  0
 17 18  1  0
 18 19  1  0
 19 20  2  0
 21 22  2  0
 23 24  2  0
M  END
