
     RDKit          3D

 23 23  0  0  0  0  0  0  0  0999 V2000
    6.4320    0.0180   -0.9960 C   0  0  0  0  0  0  0  0  0  0  0  0
    5.6780    0.0560    0.1130 C   0  0  0  0  0  0  0  0  0  0  0  0
    6.3750   -0.0890    1.2940 O   0  0  0  0  0  0  0  0  0  0  0  0
    4.2840    0.2350   -0.0080 C   0  0  0  0  0  0  0  0  0  0  0  0
    3.3740    0.2920    0.9420 C   0  0  0  0  0  0  0  0  0  0  0  0
    3.7720    0.1550    2.3470 C   0  0  0  0  0  0  0  0  0  0  0  0
    1.9790    0.4630    0.5040 C   0  0  0  0  0  0  0  0  0  0  0  0
    0.8780    0.5830    1.1640 C   0  0  0  0  0  0  0  0  0  0  0  0
    0.8360    0.5760    2.6510 C   0  0  0  0  0  0  0  0  0  0  0  0
   -0.3960    0.7320    0.4820 C   0  0  0  0  0  0  0  0  0  0  0  0
   -1.5220    0.8300    1.1990 C   0  0  0  0  0  0  0  0  0  0  0  0
   -2.7790    0.9800    0.5250 N   0  0  0  0  0  0  0  0  0  0  0  0
   -3.5900   -0.1470    0.3120 C   0  0  0  0  0  0  0  0  0  0  0  0
   -3.1900   -1.3850    0.7370 C   0  0  0  0  0  0  0  0  0  0  0  0
   -3.9650   -2.4960    0.5390 C   0  0  0  0  0  0  0  0  0  0  0  0
   -5.1790   -2.3400   -0.1100 C   0  0  0  0  0  0  0  0  0  0  0  0
   -5.5890   -1.0980   -0.5410 C   0  0  0  0  0  0  0  0  0  0  0  0
   -4.7910    0.0060   -0.3300 C   0  0  0  0  0  0  0  0  0  0  0  0
   -0.5270    0.7850   -0.9450 C   0  0  0  0  0  0  0  0  0  0  0  0
    0.3760    0.7150   -1.7620 O   0  0  0  0  0  0  0  0  0  0  0  0
   -1.8220    0.9340   -1.5010 O   0  0  0  0  0  0  0  0  0  0  0  0
   -2.0590    0.9950   -2.8860 C   0  0  0  0  0  0  0  0  0  0  0  0
   -1.5990   -0.2710   -3.5360 C   0  0  0  0  0  0  0  0  0  0  0  0
  1  2  2  0
  2  3  1  0
  2  4  1  0
  4  5  2  3
  5  6  1  0
  5  7  1  0
  7  8  2  3
  8  9  1  0
  8 10  1  0
 10 11  2  3
 10 19  1  0
 11 12  1  0
 12 13  1  0
 13 14  2  0
 13 18  1  0
 14 15  1  0
 15 16  2  0
 16 17  1  0
 17 18  2  0
 19 20  2  0
 19 21  1  0
 21 22  1  0
 22 23  1  0
M  END
