
     RDKit          3D

 23 24  0  0  0  0  0  0  0  0999 V2000
   -5.7120   -3.0020   -1.9430 C   0  0  0  0  0  0  0  0  0  0  0  0
   -4.9430   -2.8760   -0.6500 C   0  0  0  0  0  0  0  0  0  0  0  0
   -4.5950   -1.4840   -0.3350 C   0  0  0  0  0  0  0  0  0  0  0  0
   -3.2920   -1.1620   -0.2160 C   0  0  0  0  0  0  0  0  0  0  0  0
   -2.8910    0.1830    0.0900 C   0  0  0  0  0  0  0  0  0  0  0  0
   -1.7080    0.7150    0.2490 C   0  0  0  0  0  0  0  0  0  0  0  0
   -1.6960    2.1920    0.5700 C   0  0  0  0  0  0  0  0  0  0  0  0
   -3.0640    2.6440    0.6090 O   0  0  0  0  0  0  0  0  0  0  0  0
   -2.9850    4.0030    0.9070 C   0  0  0  0  0  0  0  0  0  0  0  0
   -0.4870    0.0100    0.1190 C   0  0  0  0  0  0  0  0  0  0  0  0
   -0.6660   -1.2570   -0.1820 O   0  0  0  0  0  0  0  0  0  0  0  0
    0.8960    0.3970    0.2450 C   0  0  0  0  0  0  0  0  0  0  0  0
    1.3490    1.5920    0.7330 C   0  0  0  0  0  0  0  0  0  0  0  0
    2.6690    1.9180    0.8490 N   0  0  0  0  0  0  0  0  0  0  0  0
    3.5780    1.0110    0.4620 C   0  0  0  0  0  0  0  0  0  0  0  0
    4.9430    1.2790    0.5540 C   0  0  0  0  0  0  0  0  0  0  0  0
    5.8800    0.3540    0.1590 C   0  0  0  0  0  0  0  0  0  0  0  0
    5.5340   -0.8820   -0.3470 C   0  0  0  0  0  0  0  0  0  0  0  0
    6.5660   -1.8630   -0.7660 C   0  0  0  0  0  0  0  0  0  0  0  0
    4.1890   -1.1500   -0.4390 C   0  0  0  0  0  0  0  0  0  0  0  0
    3.2160   -0.2170   -0.0400 C   0  0  0  0  0  0  0  0  0  0  0  0
    1.8840   -0.5240   -0.1490 C   0  0  0  0  0  0  0  0  0  0  0  0
    1.5320   -1.6160   -0.5950 O   0  0  0  0  0  0  0  0  0  0  0  0
  1  2  1  0
  2  3  1  0
  3  4  2  3
  4  5  1  0
  5  6  2  3
  6  7  1  0
  6 10  1  0
  7  8  1  0
  8  9  1  0
 10 11  2  0
 10 12  1  0
 12 13  2  0
 12 22  1  0
 13 14  1  0
 14 15  1  0
 15 16  2  0
 15 21  1  0
 16 17  1  0
 17 18  2  0
 18 19  1  0
 18 20  1  0
 20 21  2  0
 21 22  1  0
 22 23  2  0
M  END
