
     RDKit          3D

 23 24  0  0  0  0  0  0  0  0999 V2000
    1.7660   -4.6430    0.8160 C   0  0  0  0  0  0  0  0  0  0  0  0
    1.8070   -3.1650    0.6570 C   0  0  0  0  0  0  0  0  0  0  0  0
    0.6740   -2.3690    0.6720 C   0  0  0  0  0  0  0  0  0  0  0  0
    0.7020   -1.0130    0.5270 C   0  0  0  0  0  0  0  0  0  0  0  0
   -0.4650   -0.1560    0.5390 C   0  0  0  0  0  0  0  0  0  0  0  0
   -1.6640   -0.6680    0.6960 C   0  0  0  0  0  0  0  0  0  0  0  0
   -2.8320    0.2650    0.7000 C   0  0  0  0  0  0  0  0  0  0  0  0
   -3.7360   -0.1530   -0.4490 C   0  0  0  0  0  0  0  0  0  0  0  0
   -4.9340    0.7220   -0.5280 C   0  0  0  0  0  0  0  0  0  0  0  0
   -6.1200    0.1920   -0.4080 C   0  0  0  0  0  0  0  0  0  0  0  0
   -7.3710    1.0030   -0.4760 C   0  0  0  0  0  0  0  0  0  0  0  0
   -7.1100    2.3600   -0.6790 O   0  0  0  0  0  0  0  0  0  0  0  0
   -5.8540    2.9130   -0.8060 C   0  0  0  0  0  0  0  0  0  0  0  0
   -4.7820    2.1470   -0.7370 C   0  0  0  0  0  0  0  0  0  0  0  0
    1.9470   -0.4070    0.3560 C   0  0  0  0  0  0  0  0  0  0  0  0
    3.1040   -1.1340    0.3320 C   0  0  0  0  0  0  0  0  0  0  0  0
    4.3960   -0.4930    0.1530 C   0  0  0  0  0  0  0  0  0  0  0  0
    5.4630   -1.2030    0.1350 O   0  0  0  0  0  0  0  0  0  0  0  0
    4.5910    0.9000   -0.0100 N   0  0  0  0  0  0  0  0  0  0  0  0
    5.9400    1.4550   -0.1850 C   0  0  0  0  0  0  0  0  0  0  0  0
    5.8240    2.9580   -0.3330 C   0  0  0  0  0  0  0  0  0  0  0  0
    7.0490    3.5580   -0.5020 O   0  0  0  0  0  0  0  0  0  0  0  0
    3.0110   -2.5210    0.4850 C   0  0  0  0  0  0  0  0  0  0  0  0
  1  2  1  0
  2  3  2  0
  2 23  1  0
  3  4  1  0
  4  5  1  0
  4 15  2  0
  5  6  2  3
  6  7  1  0
  7  8  1  0
  8  9  1  0
  9 10  2  0
  9 14  1  0
 10 11  1  0
 11 12  1  0
 12 13  1  0
 13 14  2  0
 15 16  1  0
 16 17  1  0
 16 23  2  0
 17 18  2  0
 17 19  1  0
 19 20  1  0
 20 21  1  0
 21 22  1  0
M  END
