
     RDKit          3D

 23 24  0  0  0  0  0  0  0  0999 V2000
   -4.1030    0.9360    2.8150 C   0  0  0  0  0  0  0  0  0  0  0  0
   -4.7120    1.2350    1.6780 C   0  0  0  0  0  0  0  0  0  0  0  0
   -4.7140    0.2620    0.6080 C   0  0  0  0  0  0  0  0  0  0  0  0
   -5.3130    0.5370   -0.5310 C   0  0  0  0  0  0  0  0  0  0  0  0
   -5.3010   -0.4740   -1.6110 C   0  0  0  0  0  0  0  0  0  0  0  0
   -4.0790   -0.9780    0.7770 O   0  0  0  0  0  0  0  0  0  0  0  0
   -2.7510   -1.0610    0.3650 C   0  0  0  0  0  0  0  0  0  0  0  0
   -2.0720   -2.2520    0.5040 C   0  0  0  0  0  0  0  0  0  0  0  0
   -0.7580   -2.3970    0.1150 C   0  0  0  0  0  0  0  0  0  0  0  0
   -0.1120   -1.2850   -0.4370 C   0  0  0  0  0  0  0  0  0  0  0  0
   -0.7610   -0.0840   -0.5880 C   0  0  0  0  0  0  0  0  0  0  0  0
   -0.0750    1.0680   -1.1620 C   0  0  0  0  0  0  0  0  0  0  0  0
    1.3230    0.8990   -1.2990 O   0  0  0  0  0  0  0  0  0  0  0  0
    2.1790    0.6650   -0.2650 C   0  0  0  0  0  0  0  0  0  0  0  0
    1.7130    0.5910    0.9010 O   0  0  0  0  0  0  0  0  0  0  0  0
    3.6310    0.4930   -0.4570 C   0  0  0  0  0  0  0  0  0  0  0  0
    4.2060    0.5620   -1.7080 C   0  0  0  0  0  0  0  0  0  0  0  0
    5.5650    0.4000   -1.8790 C   0  0  0  0  0  0  0  0  0  0  0  0
    6.3630    0.1660   -0.7790 C   0  0  0  0  0  0  0  0  0  0  0  0
    5.8230    0.0890    0.5030 C   0  0  0  0  0  0  0  0  0  0  0  0
    6.6740   -0.1520    1.6000 N   0  0  0  0  0  0  0  0  0  0  0  0
    4.4490    0.2590    0.6190 C   0  0  0  0  0  0  0  0  0  0  0  0
   -2.0720    0.0170   -0.1870 C   0  0  0  0  0  0  0  0  0  0  0  0
  1  2  2  0
  2  3  1  0
  3  4  2  3
  3  6  1  0
  4  5  1  0
  6  7  1  0
  7  8  2  0
  7 23  1  0
  8  9  1  0
  9 10  2  0
 10 11  1  0
 11 12  1  0
 11 23  2  0
 12 13  1  0
 13 14  1  0
 14 15  2  0
 14 16  1  0
 16 17  2  0
 16 22  1  0
 17 18  1  0
 18 19  2  0
 19 20  1  0
 20 21  1  0
 20 22  2  0
M  END
