
     RDKit          3D

 23 24  0  0  0  0  0  0  0  0999 V2000
   -4.9620   -1.8790    1.8360 C   0  0  0  0  0  0  0  0  0  0  0  0
   -5.7650   -1.0720    1.0140 O   0  0  0  0  0  0  0  0  0  0  0  0
   -5.2760   -0.1800    0.0790 C   0  0  0  0  0  0  0  0  0  0  0  0
   -3.9180   -0.0250   -0.1070 C   0  0  0  0  0  0  0  0  0  0  0  0
   -3.4220    0.8640   -1.0390 C   0  0  0  0  0  0  0  0  0  0  0  0
   -1.9570    1.0440   -1.2520 C   0  0  0  0  0  0  0  0  0  0  0  0
   -1.2840    0.1870   -0.3750 O   0  0  0  0  0  0  0  0  0  0  0  0
    0.1050    0.1490   -0.3620 C   0  0  0  0  0  0  0  0  0  0  0  0
    0.8720    0.9350   -1.1910 C   0  0  0  0  0  0  0  0  0  0  0  0
    2.2440    0.8720   -1.1520 C   0  0  0  0  0  0  0  0  0  0  0  0
    2.9400    0.0190   -0.2790 C   0  0  0  0  0  0  0  0  0  0  0  0
    4.4020    0.0200   -0.3080 C   0  0  0  0  0  0  0  0  0  0  0  0
    5.2010   -0.6980    0.4230 C   0  0  0  0  0  0  0  0  0  0  0  0
    6.6840   -0.5400    0.2310 C   0  0  0  0  0  0  0  0  0  0  0  0
    7.3400   -0.0860    1.5150 C   0  0  0  0  0  0  0  0  0  0  0  0
    8.7590    0.0410    1.2440 N   0  0  0  0  0  0  0  0  0  0  0  0
    2.1700   -0.7590    0.5430 C   0  0  0  0  0  0  0  0  0  0  0  0
    2.7620   -1.6240    1.4300 O   0  0  0  0  0  0  0  0  0  0  0  0
    0.7680   -0.6920    0.4990 C   0  0  0  0  0  0  0  0  0  0  0  0
   -4.3460    1.5900   -1.7740 C   0  0  0  0  0  0  0  0  0  0  0  0
   -5.7040    1.4310   -1.5830 C   0  0  0  0  0  0  0  0  0  0  0  0
   -6.1960    0.5430   -0.6530 C   0  0  0  0  0  0  0  0  0  0  0  0
   -7.6640    0.3730   -0.4490 C   0  0  0  0  0  0  0  0  0  0  0  0
  1  2  1  0
  2  3  1  0
  3  4  2  0
  3 22  1  0
  4  5  1  0
  5  6  1  0
  5 20  2  0
  6  7  1  0
  7  8  1  0
  8  9  2  0
  8 19  1  0
  9 10  1  0
 10 11  2  0
 11 12  1  0
 11 17  1  0
 12 13  2  3
 13 14  1  0
 14 15  1  0
 15 16  1  0
 17 18  1  0
 17 19  2  0
 20 21  1  0
 21 22  2  0
 22 23  1  0
M  END
