
     RDKit          3D

 23 24  0  0  0  0  0  0  0  0999 V2000
   -3.9840    3.1120    0.6560 C   0  0  0  0  0  0  0  0  0  0  0  0
   -2.9960    1.9610    0.5740 C   0  0  0  0  0  0  0  0  0  0  0  0
   -3.1510    1.3370   -0.8020 C   0  0  0  0  0  0  0  0  0  0  0  0
   -2.2200    0.1920   -0.9840 C   0  0  0  0  0  0  0  0  0  0  0  0
   -1.0760    0.3020   -1.7450 C   0  0  0  0  0  0  0  0  0  0  0  0
   -0.2140   -0.7640   -1.9110 C   0  0  0  0  0  0  0  0  0  0  0  0
    1.0130   -0.6870   -2.7070 C   0  0  0  0  0  0  0  0  0  0  0  0
    2.1700   -0.5200   -1.9150 O   0  0  0  0  0  0  0  0  0  0  0  0
    2.4240    0.5180   -1.0670 C   0  0  0  0  0  0  0  0  0  0  0  0
    1.5830    1.4230   -0.9520 O   0  0  0  0  0  0  0  0  0  0  0  0
    3.6560    0.6260   -0.2700 C   0  0  0  0  0  0  0  0  0  0  0  0
    4.6450   -0.3340   -0.3350 C   0  0  0  0  0  0  0  0  0  0  0  0
    5.8150   -0.2750    0.3930 C   0  0  0  0  0  0  0  0  0  0  0  0
    5.9990    0.8040    1.2260 C   0  0  0  0  0  0  0  0  0  0  0  0
    7.2110    0.8490    1.9700 N   0  0  0  0  0  0  0  0  0  0  0  0
    5.0420    1.7930    1.3300 C   0  0  0  0  0  0  0  0  0  0  0  0
    3.8730    1.6930    0.5760 C   0  0  0  0  0  0  0  0  0  0  0  0
   -0.5370   -1.9570   -1.2850 C   0  0  0  0  0  0  0  0  0  0  0  0
   -1.6880   -2.0550   -0.5250 C   0  0  0  0  0  0  0  0  0  0  0  0
   -2.5530   -1.0050   -0.3510 C   0  0  0  0  0  0  0  0  0  0  0  0
   -3.7170   -1.0760    0.4080 O   0  0  0  0  0  0  0  0  0  0  0  0
   -4.1400   -2.2430    1.0830 C   0  0  0  0  0  0  0  0  0  0  0  0
   -4.3860   -3.4060    0.1490 C   0  0  0  0  0  0  0  0  0  0  0  0
  1  2  1  0
  2  3  1  0
  3  4  1  0
  4  5  2  0
  4 20  1  0
  5  6  1  0
  6  7  1  0
  6 18  2  0
  7  8  1  0
  8  9  1  0
  9 10  2  0
  9 11  1  0
 11 12  2  0
 11 17  1  0
 12 13  1  0
 13 14  2  0
 14 15  1  0
 14 16  1  0
 16 17  2  0
 18 19  1  0
 19 20  2  0
 20 21  1  0
 21 22  1  0
 22 23  1  0
M  END
