
     RDKit          3D

 34 37  0  0  0  0  0  0  0  0999 V2000
   -2.8150   -1.4520    3.3540 N   0  0  0  0  0  0  0  0  0  0  0  0
   -3.1040   -0.8090    2.1180 C   0  0  0  0  0  0  0  0  0  0  0  0
   -2.8960   -1.4740    1.0960 O   0  0  0  0  0  0  0  0  0  0  0  0
   -3.6130    0.5530    2.1200 C   0  0  0  0  0  0  0  0  0  0  0  0
   -3.8950    1.2800    3.2960 C   0  0  0  0  0  0  0  0  0  0  0  0
   -4.3380    2.4510    2.9280 O   0  0  0  0  0  0  0  0  0  0  0  0
   -4.3710    2.5560    1.6330 C   0  0  0  0  0  0  0  0  0  0  0  0
   -3.9090    1.3500    1.0470 C   0  0  0  0  0  0  0  0  0  0  0  0
   -3.7960    1.1200   -0.3720 C   0  0  0  0  0  0  0  0  0  0  0  0
   -4.1490    1.9790   -1.2260 O   0  0  0  0  0  0  0  0  0  0  0  0
   -3.2900   -0.0590   -0.8760 O   0  0  0  0  0  0  0  0  0  0  0  0
   -3.1790   -0.2970   -2.2170 C   0  0  0  0  0  0  0  0  0  0  0  0
   -4.3710   -0.5830   -2.8870 C   0  0  0  0  0  0  0  0  0  0  0  0
   -4.3990   -0.8380   -4.2370 C   0  0  0  0  0  0  0  0  0  0  0  0
   -5.5580   -1.1140   -4.8780 F   0  0  0  0  0  0  0  0  0  0  0  0
   -3.2020   -0.7980   -4.8930 C   0  0  0  0  0  0  0  0  0  0  0  0
   -3.2250   -1.0630   -6.3020 N   0  0  0  0  0  0  0  0  0  0  0  0
   -2.0230   -0.5220   -4.2610 C   0  0  0  0  0  0  0  0  0  0  0  0
   -1.9900   -0.2600   -2.8730 C   0  0  0  0  0  0  0  0  0  0  0  0
   -0.6830   -0.0090   -2.2600 C   0  0  0  0  0  0  0  0  0  0  0  0
    0.3050    0.0100   -3.0500 O   0  0  0  0  0  0  0  0  0  0  0  0
   -0.4060    0.2120   -0.9110 N   0  0  0  0  0  0  0  0  0  0  0  0
    0.8580    0.4680   -0.3220 C   0  0  0  0  0  0  0  0  0  0  0  0
    0.9530    0.4270    1.0750 C   0  0  0  0  0  0  0  0  0  0  0  0
    2.1420    0.6750    1.7230 C   0  0  0  0  0  0  0  0  0  0  0  0
    3.3020    0.9770    1.0460 C   0  0  0  0  0  0  0  0  0  0  0  0
    4.5530    1.2350    1.7950 C   0  0  0  0  0  0  0  0  0  0  0  0
    5.3370    0.0160    2.0210 C   0  0  0  0  0  0  0  0  0  0  0  0
    6.5700   -0.1840    1.5930 C   0  0  0  0  0  0  0  0  0  0  0  0
    6.9990   -1.4770    2.0030 N   0  0  0  0  0  0  0  0  0  0  0  0
    5.9370   -2.0570    2.7150 C   0  0  0  0  0  0  0  0  0  0  0  0
    4.9380   -1.1840    2.7370 C   0  0  0  0  0  0  0  0  0  0  0  0
    3.2140    1.0190   -0.3210 C   0  0  0  0  0  0  0  0  0  0  0  0
    2.0100    0.7680   -1.0020 C   0  0  0  0  0  0  0  0  0  0  0  0
  1  2  1  0
  2  3  2  0
  2  4  1  0
  4  5  2  0
  4  8  1  0
  5  6  1  0
  6  7  1  0
  7  8  2  0
  8  9  1  0
  9 10  2  0
  9 11  1  0
 11 12  1  0
 12 13  2  0
 12 19  1  0
 13 14  1  0
 14 15  1  0
 14 16  2  0
 16 17  1  0
 16 18  1  0
 18 19  2  0
 19 20  1  0
 20 21  2  0
 20 22  1  0
 22 23  1  0
 23 24  2  0
 23 34  1  0
 24 25  1  0
 25 26  2  0
 26 27  1  0
 26 33  1  0
 27 28  1  0
 28 29  2  0
 28 32  1  0
 29 30  1  0
 30 31  1  0
 31 32  2  0
 33 34  2  0
M  CHG  1  30   1
M  END
