
     RDKit          3D

 24 26  0  0  0  0  0  0  0  0999 V2000
    0.2000   -1.4840   -1.7170 C   0  0  0  0  0  0  0  0  0  0  0  0
   -0.3210   -1.2490   -0.3110 C   0  0  1  0  0  0  0  0  0  0  0  0
    0.3010   -0.0560    0.2480 N   0  0  0  0  0  0  0  0  0  0  0  0
    1.7200   -0.0040    0.2450 C   0  0  0  0  0  0  0  0  0  0  0  0
    2.4950   -0.9850   -0.2670 N   0  0  0  0  0  0  0  0  0  0  0  0
    3.8430   -0.9070   -0.2780 C   0  0  0  0  0  0  0  0  0  0  0  0
    4.7140   -2.2510   -0.9720 Cl  0  0  0  0  0  0  0  0  0  0  0  0
    4.4670    0.1670    0.2310 N   0  0  0  0  0  0  0  0  0  0  0  0
    3.7830    1.1940    0.7640 C   0  0  0  0  0  0  0  0  0  0  0  0
    2.3980    1.0940    0.7640 C   0  0  0  0  0  0  0  0  0  0  0  0
    1.9600    2.2620    1.3560 C   0  0  0  0  0  0  0  0  0  0  0  0
    3.0470    2.9720    1.6670 N   0  0  0  0  0  0  0  0  0  0  0  0
    4.1620    2.3550    1.3220 N   0  0  0  0  0  0  0  0  0  0  0  0
    5.5390    2.7940    1.4810 C   0  0  0  0  0  0  0  0  0  0  0  0
   -1.8040   -1.1060   -0.3190 C   0  0  0  0  0  0  0  0  0  0  0  0
   -2.6600   -2.1110    0.0530 C   0  0  0  0  0  0  0  0  0  0  0  0
   -4.0480   -1.9250    0.0320 C   0  0  0  0  0  0  0  0  0  0  0  0
   -4.5990   -0.7240   -0.3620 C   0  0  0  0  0  0  0  0  0  0  0  0
   -6.0910   -0.5130   -0.3830 C   0  0  2  0  0  0  0  0  0  0  0  0
   -6.4320   -0.1970   -1.6790 F   0  0  0  0  0  0  0  0  0  0  0  0
   -6.4340    0.4320    0.5410 F   0  0  0  0  0  0  0  0  0  0  0  0
   -6.6880   -1.7040   -0.0420 F   0  0  0  0  0  0  0  0  0  0  0  0
   -3.7430    0.2880   -0.7360 C   0  0  0  0  0  0  0  0  0  0  0  0
   -2.3700    0.0920   -0.7130 C   0  0  0  0  0  0  0  0  0  0  0  0
  2  1  1  6
  2  3  1  0
  2 15  1  0
  3  4  1  0
  4  5  2  0
  4 10  1  0
  5  6  1  0
  6  7  1  0
  6  8  2  0
  8  9  1  0
  9 10  2  0
  9 13  1  0
 10 11  1  0
 11 12  2  0
 12 13  1  0
 13 14  1  0
 15 16  2  0
 15 24  1  0
 16 17  1  0
 17 18  2  0
 18 19  1  0
 18 23  1  0
 19 20  1  6
 19 21  1  0
 19 22  1  0
 23 24  2  0
M  END
