
     RDKit          3D

 11 11  0  0  0  0  0  0  0  0999 V2000
    3.6820    0.7640   -0.9360 C   0  0  0  0  0  0  0  0  0  0  0  0
    2.6050    0.0550   -0.1560 C   0  0  0  0  0  0  0  0  0  0  0  0
    1.2920    0.3810   -0.6390 N   0  0  0  0  0  0  0  0  0  0  0  0
    0.1060   -0.1470   -0.0850 C   0  0  0  0  0  0  0  0  0  0  0  0
    0.1810   -1.0220    0.9770 C   0  0  0  0  0  0  0  0  0  0  0  0
   -0.9530   -1.5220    1.5020 N   0  0  0  0  0  0  0  0  0  0  0  0
   -2.1550   -1.1500    0.9700 C   0  0  0  0  0  0  0  0  0  0  0  0
   -2.2440   -0.2750   -0.0920 C   0  0  0  0  0  0  0  0  0  0  0  0
   -3.5860    0.0910   -0.6270 C   0  0  0  0  0  0  0  0  0  0  0  0
   -3.5170    0.9660   -1.6790 O   0  0  0  0  0  0  0  0  0  0  0  0
   -1.0940    0.2070   -0.5950 N   0  0  0  0  0  0  0  0  0  0  0  0
  1  2  1  0
  2  3  1  0
  3  4  1  0
  4  5  2  0
  4 11  1  0
  5  6  1  0
  6  7  2  0
  7  8  1  0
  8  9  1  0
  8 11  2  0
  9 10  1  0
M  END
