
     RDKit          3D

 10 11  0  0  0  0  0  0  0  0999 V2000
    0.2750   -2.3580    0.1930 N   0  0  0  0  0  0  0  0  0  0  0  0
   -0.3410   -1.1000    0.0500 C   0  0  0  0  0  0  0  0  0  0  0  0
   -1.6640   -1.0630   -0.0670 N   0  0  0  0  0  0  0  0  0  0  0  0
   -2.4260    0.0120   -0.2100 C   0  0  0  0  0  0  0  0  0  0  0  0
   -1.7500    1.2380   -0.2390 C   0  0  0  0  0  0  0  0  0  0  0  0
   -0.3530    1.2230   -0.1170 C   0  0  0  0  0  0  0  0  0  0  0  0
    0.8460    2.5580   -0.1080 S   0  0  0  0  0  0  0  0  0  0  0  0
    2.2820    1.4760    0.0930 C   0  0  0  0  0  0  0  0  0  0  0  0
    1.7320    0.2070    0.1360 C   0  0  0  0  0  0  0  0  0  0  0  0
    0.4000    0.1150    0.0270 C   0  0  0  0  0  0  0  0  0  0  0  0
  1  2  1  0
  2  3  2  0
  2 10  1  0
  3  4  1  0
  4  5  2  0
  5  6  1  0
  6  7  1  0
  6 10  2  0
  7  8  1  0
  8  9  2  0
  9 10  1  0
M  END
