
     RDKit          3D

 10 11  0  0  0  0  0  0  0  0999 V2000
   -2.8880    0.3810    0.3510 N   0  0  0  0  0  0  0  0  0  0  0  0
   -1.5210    0.1550    0.1470 C   0  0  0  0  0  0  0  0  0  0  0  0
   -1.0820   -0.8520   -0.6840 C   0  0  0  0  0  0  0  0  0  0  0  0
    0.2320   -1.1460   -0.9420 C   0  0  0  0  0  0  0  0  0  0  0  0
    1.2240   -0.3960   -0.3420 C   0  0  0  0  0  0  0  0  0  0  0  0
    2.5460   -0.5180   -0.4600 N   0  0  0  0  0  0  0  0  0  0  0  0
    3.3570    0.0730    0.0120 C   0  0  0  0  0  0  0  0  0  0  0  0
    2.3440    1.3090    1.0370 S   0  0  0  0  0  0  0  0  0  0  0  0
    0.8260    0.6110    0.4880 C   0  0  0  0  0  0  0  0  0  0  0  0
   -0.5130    0.9080    0.7490 C   0  0  0  0  0  0  0  0  0  0  0  0
  1  2  1  0
  2  3  2  0
  2 10  1  0
  3  4  1  0
  4  5  2  0
  5  6  1  0
  5  9  1  0
  6  7  2  0
  7  8  1  0
  8  9  1  0
  9 10  2  0
M  END
