
     RDKit          3D

 10 11  0  0  0  0  0  0  0  0999 V2000
    2.7130   -0.7760   -0.3010 N   0  0  0  0  0  0  0  0  0  0  0  0
    1.3990   -0.2380   -0.0540 C   0  0  0  0  0  0  0  0  0  0  0  0
    1.3160    0.9340    0.6770 C   0  0  0  0  0  0  0  0  0  0  0  0
    0.0340    1.4410    0.9080 C   0  0  0  0  0  0  0  0  0  0  0  0
   -1.0610    0.7680    0.4100 C   0  0  0  0  0  0  0  0  0  0  0  0
   -2.8190    1.0680    0.4780 S   0  0  0  0  0  0  0  0  0  0  0  0
   -3.1850   -0.4950   -0.5280 C   0  0  0  0  0  0  0  0  0  0  0  0
   -2.1660   -0.8760   -0.6980 N   0  0  0  0  0  0  0  0  0  0  0  0
   -0.9970   -0.3840   -0.3090 C   0  0  0  0  0  0  0  0  0  0  0  0
    0.2860   -0.8790   -0.5320 C   0  0  0  0  0  0  0  0  0  0  0  0
  1  2  1  0
  2  3  2  0
  2 10  1  0
  3  4  1  0
  4  5  2  0
  5  6  1  0
  5  9  1  0
  6  7  1  0
  7  8  2  0
  8  9  1  0
  9 10  2  0
M  END
