
     RDKit          3D

 13 14  0  0  0  0  0  0  0  0999 V2000
    3.6190    0.0180    0.4060 C   0  0  0  0  0  0  0  0  0  0  0  0
    2.4070   -0.4110   -0.2380 N   0  0  0  0  0  0  0  0  0  0  0  0
    1.1490    0.0580    0.1840 C   0  0  0  0  0  0  0  0  0  0  0  0
    1.0770    0.9210    1.2040 N   0  0  0  0  0  0  0  0  0  0  0  0
   -0.1030    1.4150    1.6640 C   0  0  0  0  0  0  0  0  0  0  0  0
   -0.1640    2.5490    3.0080 Cl  0  0  0  0  0  0  0  0  0  0  0  0
   -1.2420    1.0200    1.0690 N   0  0  0  0  0  0  0  0  0  0  0  0
   -1.2690    0.1590    0.0400 C   0  0  0  0  0  0  0  0  0  0  0  0
   -0.0430   -0.3200   -0.3960 C   0  0  0  0  0  0  0  0  0  0  0  0
   -0.3380   -1.1640   -1.4340 C   0  0  0  0  0  0  0  0  0  0  0  0
   -1.6790   -1.1670   -1.5840 N   0  0  0  0  0  0  0  0  0  0  0  0
   -2.2600   -0.3710   -0.6990 N   0  0  0  0  0  0  0  0  0  0  0  0
   -3.6970   -0.1220   -0.5590 C   0  0  0  0  0  0  0  0  0  0  0  0
  1  2  1  0
  2  3  1  0
  3  4  2  0
  3  9  1  0
  4  5  1  0
  5  6  1  0
  5  7  2  0
  7  8  1  0
  8  9  2  0
  8 12  1  0
  9 10  1  0
 10 11  2  0
 11 12  1  0
 12 13  1  0
M  END
