
     RDKit          3D

 10 11  0  0  0  0  0  0  0  0999 V2000
   -2.5720    0.9680   -0.1710 N   0  0  0  0  0  0  0  0  0  0  0  0
   -1.4920    0.1820    0.3030 C   0  0  0  0  0  0  0  0  0  0  0  0
   -1.6010   -0.7130    1.2920 N   0  0  0  0  0  0  0  0  0  0  0  0
   -0.4750   -1.3890    1.6340 C   0  0  0  0  0  0  0  0  0  0  0  0
    0.7390   -1.2080    1.0350 C   0  0  0  0  0  0  0  0  0  0  0  0
    0.8760   -0.2630   -0.0160 C   0  0  0  0  0  0  0  0  0  0  0  0
    1.9950    0.0360   -0.7090 C   0  0  0  0  0  0  0  0  0  0  0  0
    1.9390    0.9740   -1.6870 C   0  0  0  0  0  0  0  0  0  0  0  0
    0.1560    1.4730   -1.6210 S   0  0  0  0  0  0  0  0  0  0  0  0
   -0.2710    0.3820   -0.3180 C   0  0  0  0  0  0  0  0  0  0  0  0
  1  2  1  0
  2  3  2  0
  2 10  1  0
  3  4  1  0
  4  5  2  0
  5  6  1  0
  6  7  1  0
  6 10  2  0
  7  8  2  0
  8  9  1  0
  9 10  1  0
M  END
