
     RDKit          3D

 19 21  0  0  0  0  0  0  0  0999 V2000
   -7.5870    0.5590    0.4590 O   0  0  0  0  0  0  0  0  0  0  0  0
   -6.8520    1.5480    0.7130 C   0  0  0  0  0  0  0  0  0  0  0  0
   -5.4100    1.4730    0.5980 C   0  0  0  0  0  0  0  0  0  0  0  0
   -4.8660    0.3400    0.2170 C   0  0  0  0  0  0  0  0  0  0  0  0
   -3.3960    0.2470    0.0960 C   0  0  0  0  0  0  0  0  0  0  0  0
   -2.7170   -0.8210   -0.2750 C   0  0  0  0  0  0  0  0  0  0  0  0
   -1.2700   -0.5200   -0.2740 C   0  0  0  0  0  0  0  0  0  0  0  0
   -0.3040   -1.3590   -0.5870 C   0  0  0  0  0  0  0  0  0  0  0  0
    1.1010   -0.9890   -0.5630 C   0  0  0  0  0  0  0  0  0  0  0  0
    2.1360   -1.8260   -0.1310 C   0  0  0  0  0  0  0  0  0  0  0  0
    3.2920   -1.0680   -0.2830 C   0  0  0  0  0  0  0  0  0  0  0  0
    2.9400    0.1580   -0.7820 C   0  0  0  0  0  0  0  0  0  0  0  0
    1.6360    0.1400   -0.9250 O   0  0  0  0  0  0  0  0  0  0  0  0
    4.1630    1.0280   -0.9670 C   0  0  0  0  0  0  0  0  0  0  0  0
    5.2140    0.2820   -0.1990 C   0  0  0  0  0  0  0  0  0  0  0  0
    4.7780   -1.1350   -0.0910 C   0  0  0  0  0  0  0  0  0  0  0  0
   -1.1960    0.8730    0.1490 C   0  0  0  0  0  0  0  0  0  0  0  0
   -0.1590    1.5580    0.2950 O   0  0  0  0  0  0  0  0  0  0  0  0
   -2.5230    1.2880    0.3600 O   0  0  0  0  0  0  0  0  0  0  0  0
  1  2  2  0
  2  3  1  0
  3  4  2  3
  4  5  1  0
  5  6  2  0
  5 19  1  0
  6  7  1  0
  7  8  2  3
  7 17  1  0
  8  9  1  0
  9 10  2  0
  9 13  1  0
 10 11  1  0
 11 12  2  0
 11 16  1  0
 12 13  1  0
 12 14  1  0
 14 15  1  0
 15 16  1  0
 17 18  2  0
 17 19  1  0
M  END
