
     RDKit          3D

 19 21  0  0  0  0  0  0  0  0999 V2000
    4.4100   -0.5590    0.2670 C   0  0  0  0  0  0  0  0  0  0  0  0
    3.3440    0.3560    0.3490 O   0  0  0  0  0  0  0  0  0  0  0  0
    2.0060   -0.1920    0.3340 C   0  0  0  0  0  0  0  0  0  0  0  0
    2.0700   -1.4060    0.2480 O   0  0  0  0  0  0  0  0  0  0  0  0
    0.9600    0.8230    0.4200 C   0  0  0  0  0  0  0  0  0  0  0  0
    1.3740    2.1710    0.4900 C   0  0  0  0  0  0  0  0  0  0  0  0
    2.5980    2.4920    0.9070 O   0  0  0  0  0  0  0  0  0  0  0  0
    0.4590    3.1740    0.1160 C   0  0  0  0  0  0  0  0  0  0  0  0
   -0.7850    2.8460   -0.2970 C   0  0  0  0  0  0  0  0  0  0  0  0
   -1.2040    1.5520   -0.3570 C   0  0  0  0  0  0  0  0  0  0  0  0
   -0.3180    0.5290    0.0190 C   0  0  0  0  0  0  0  0  0  0  0  0
   -0.8080   -0.8250   -0.0440 C   0  0  0  0  0  0  0  0  0  0  0  0
   -2.0060   -1.1420   -0.4970 C   0  0  0  0  0  0  0  0  0  0  0  0
   -2.9560   -0.1230   -0.9790 C   0  0  0  0  0  0  0  0  0  0  0  0
   -2.5890    1.2790   -0.8050 C   0  0  0  0  0  0  0  0  0  0  0  0
   -2.4630   -2.5810   -0.6090 C   0  0  0  0  0  0  0  0  0  0  0  0
   -1.9850   -3.2490    0.5310 O   0  0  0  0  0  0  0  0  0  0  0  0
   -0.7470   -2.9610    1.0490 C   0  0  0  0  0  0  0  0  0  0  0  0
   -0.1180   -1.8220    0.8200 C   0  0  0  0  0  0  0  0  0  0  0  0
  1  2  1  0
  2  3  1  0
  3  4  2  0
  3  5  1  0
  5  6  2  0
  5 11  1  0
  6  7  1  0
  6  8  1  0
  8  9  2  0
  9 10  1  0
 10 11  2  0
 10 15  1  0
 11 12  1  0
 12 13  2  0
 12 19  1  0
 13 14  1  0
 13 16  1  0
 14 15  1  0
 16 17  1  0
 17 18  1  0
 18 19  2  0
M  END
