
     RDKit          3D

 41 45  0  0  0  0  0  0  0  0999 V2000
    8.1420    3.2580   -0.4660 C   0  0  0  0  0  0  0  0  0  0  0  0
    7.3050    2.2840    0.3340 C   0  0  0  0  0  0  0  0  0  0  0  0
    6.0740    2.1160   -0.3670 O   0  0  0  0  0  0  0  0  0  0  0  0
    5.1180    1.2850    0.1330 C   0  0  0  0  0  0  0  0  0  0  0  0
    5.3800    0.6880    1.2290 O   0  0  0  0  0  0  0  0  0  0  0  0
    3.8140    1.0140   -0.4720 C   0  0  0  0  0  0  0  0  0  0  0  0
    3.5050    1.6190   -1.6170 C   0  0  0  0  0  0  0  0  0  0  0  0
    4.4310    2.5450   -2.2750 C   0  0  0  0  0  0  0  0  0  0  0  0
    2.2120    1.2340   -2.2150 N   0  0  0  0  0  0  0  0  0  0  0  0
    1.1460    0.9320   -1.3500 C   0  0  1  0  0  0  0  0  0  0  0  0
   -0.1930    0.7220   -1.8580 C   0  0  0  0  0  0  0  0  0  0  0  0
   -1.1990    0.8220   -0.2440 S   0  0  0  0  0  0  0  0  0  0  0  0
   -0.5960   -0.7310    0.5310 C   0  0  0  0  0  0  0  0  0  0  0  0
    0.7220   -0.9670    0.3930 C   0  0  0  0  0  0  0  0  0  0  0  0
    1.6250   -0.0530   -0.2980 C   0  0  0  0  0  0  0  0  0  0  0  0
    2.8390    0.1510    0.1860 C   0  0  0  0  0  0  0  0  0  0  0  0
    1.3290   -2.1820    0.8990 N   0  0  0  0  0  0  0  0  0  0  0  0
    2.6530   -2.5830    0.6560 C   0  0  2  0  0  0  0  0  0  0  0  0
    2.6880   -3.9600   -0.0540 C   0  0  0  0  0  0  0  0  0  0  0  0
    3.0710   -4.9820    0.9560 C   0  0  0  0  0  0  0  0  0  0  0  0
    3.4260   -4.2470    2.1790 C   0  0  0  0  0  0  0  0  0  0  0  0
    3.5820   -4.7630    3.2800 O   0  0  0  0  0  0  0  0  0  0  0  0
    3.5420   -2.8770    1.8170 C   0  0  0  0  0  0  0  0  0  0  0  0
    0.4080   -3.0430    1.5550 C   0  0  0  0  0  0  0  0  0  0  0  0
    0.8190   -3.8180    2.4250 O   0  0  0  0  0  0  0  0  0  0  0  0
   -1.0400   -3.0140    1.2040 C   0  0  0  0  0  0  0  0  0  0  0  0
   -1.5340   -1.5540    1.2560 C   0  0  2  0  0  0  0  0  0  0  0  0
   -2.8840   -1.5880    0.8040 N   0  0  0  0  0  0  0  0  0  0  0  0
   -3.6930   -0.5230    0.3440 C   0  0  0  0  0  0  0  0  0  0  0  0
   -4.2710    0.3560    1.2150 C   0  0  0  0  0  0  0  0  0  0  0  0
   -3.9730    0.1510    2.6510 C   0  0  0  0  0  0  0  0  0  0  0  0
   -5.0890    1.4100    0.7770 C   0  0  0  0  0  0  0  0  0  0  0  0
   -5.6990    2.3100    1.7710 C   0  0  0  0  0  0  0  0  0  0  0  0
   -4.6060    3.2390    2.2630 C   0  0  0  0  0  0  0  0  0  0  0  0
   -5.3290    1.5870   -0.5470 C   0  0  0  0  0  0  0  0  0  0  0  0
   -6.1540    2.6720   -1.1250 C   0  0  0  0  0  0  0  0  0  0  0  0
   -4.7480    0.6970   -1.4640 C   0  0  0  0  0  0  0  0  0  0  0  0
   -5.0080    0.8660   -2.9120 C   0  0  0  0  0  0  0  0  0  0  0  0
   -3.9500   -0.3320   -1.0240 C   0  0  0  0  0  0  0  0  0  0  0  0
   -3.3300   -1.3620   -1.9150 C   0  0  0  0  0  0  0  0  0  0  0  0
   -3.6090   -1.0970   -3.2340 O   0  0  0  0  0  0  0  0  0  0  0  0
  1  2  1  0
  2  3  1  0
  3  4  1  0
  4  5  2  0
  4  6  1  0
  6  7  2  0
  6 16  1  0
  7  8  1  0
  7  9  1  0
  9 10  1  0
 10 11  1  6
 10 15  1  0
 11 12  1  0
 12 13  1  0
 13 14  2  0
 13 27  1  0
 14 15  1  0
 14 17  1  0
 15 16  2  0
 18 17  1  1
 17 24  1  0
 18 19  1  0
 18 23  1  0
 19 20  1  0
 20 21  1  0
 21 22  2  0
 21 23  1  0
 24 25  2  0
 24 26  1  0
 26 27  1  0
 27 28  1  6
 28 29  1  0
 29 30  2  0
 29 39  1  0
 30 31  1  0
 30 32  1  0
 32 33  1  0
 32 35  2  0
 33 34  1  0
 35 36  1  0
 35 37  1  0
 37 38  1  0
 37 39  2  0
 39 40  1  0
 40 41  1  0
M  END
