
     RDKit          3D

 41 44  0  0  0  0  0  0  0  0999 V2000
    9.7790   -2.6050   -1.5130 C   0  0  0  0  0  0  0  0  0  0  0  0
    8.4610   -2.6360   -1.5350 C   0  0  0  0  0  0  0  0  0  0  0  0
    7.7460   -2.8990   -2.8080 C   0  0  0  0  0  0  0  0  0  0  0  0
    6.8650   -1.8240   -3.2040 N   0  0  0  0  0  0  0  0  0  0  0  0
    7.1990   -0.5860   -2.5180 C   0  0  0  0  0  0  0  0  0  0  0  0
    6.3620    0.5630   -2.9810 C   0  0  0  0  0  0  0  0  0  0  0  0
    4.8940    0.4070   -2.7890 C   0  0  0  0  0  0  0  0  0  0  0  0
    4.4980    0.2430   -1.3420 C   0  0  0  0  0  0  0  0  0  0  0  0
    5.3880    0.2820   -0.4830 O   0  0  0  0  0  0  0  0  0  0  0  0
    3.1410    0.0490   -0.9930 N   0  0  0  0  0  0  0  0  0  0  0  0
    2.6870   -0.1230    0.3150 C   0  0  0  0  0  0  0  0  0  0  0  0
    3.5870   -0.5700    1.2860 C   0  0  0  0  0  0  0  0  0  0  0  0
    3.1590   -0.8490    2.5670 C   0  0  0  0  0  0  0  0  0  0  0  0
    1.8530   -0.6910    2.8880 C   0  0  0  0  0  0  0  0  0  0  0  0
    0.9800   -0.2540    1.9340 C   0  0  0  0  0  0  0  0  0  0  0  0
    1.3590    0.0430    0.6300 C   0  0  0  0  0  0  0  0  0  0  0  0
    0.4160    0.5810   -0.3390 C   0  0  0  0  0  0  0  0  0  0  0  0
    0.7660    0.9690   -1.4770 O   0  0  0  0  0  0  0  0  0  0  0  0
   -0.9790    0.7090   -0.0720 N   0  0  0  0  0  0  0  0  0  0  0  0
   -1.9760    1.2190   -0.9220 C   0  0  0  0  0  0  0  0  0  0  0  0
   -1.7370    1.8010   -2.1590 C   0  0  0  0  0  0  0  0  0  0  0  0
   -2.7520    2.3250   -2.9480 C   0  0  0  0  0  0  0  0  0  0  0  0
   -4.0440    2.2690   -2.4940 C   0  0  0  0  0  0  0  0  0  0  0  0
   -4.3440    1.7050   -1.2760 C   0  0  0  0  0  0  0  0  0  0  0  0
   -3.2860    1.1890   -0.5170 C   0  0  0  0  0  0  0  0  0  0  0  0
   -3.6810    0.5570    0.7060 N   0  0  0  0  0  0  0  0  0  0  0  0
   -3.9000   -0.8710    0.6910 C   0  0  0  0  0  0  0  0  0  0  0  0
   -4.9140   -1.2130   -0.3830 C   0  0  0  0  0  0  0  0  0  0  0  0
   -6.2430   -1.2560   -0.0290 C   0  0  0  0  0  0  0  0  0  0  0  0
   -7.2140   -1.5590   -0.9640 C   0  0  0  0  0  0  0  0  0  0  0  0
   -6.8390   -1.8220   -2.2720 C   0  0  0  0  0  0  0  0  0  0  0  0
   -5.4830   -1.7590   -2.5490 C   0  0  0  0  0  0  0  0  0  0  0  0
   -4.5470   -1.4660   -1.6410 N   0  0  0  0  0  0  0  0  0  0  0  0
   -3.8760    1.3200    1.8650 C   0  0  0  0  0  0  0  0  0  0  0  0
   -4.1230    2.6430    1.6860 C   0  0  0  0  0  0  0  0  0  0  0  0
   -4.3630    3.6480    2.6960 C   0  0  0  0  0  0  0  0  0  0  0  0
   -4.8930    3.4700    3.9220 C   0  0  0  0  0  0  0  0  0  0  0  0
   -5.3530    2.1800    4.5120 C   0  0  0  0  0  0  0  0  0  0  0  0
   -4.4410    1.0580    4.2820 C   0  0  0  0  0  0  0  0  0  0  0  0
   -3.7990    0.6720    3.1640 C   0  0  0  0  0  0  0  0  0  0  0  0
   -2.9440   -0.4970    3.3630 C   0  0  0  0  0  0  0  0  0  0  0  0
  1  2  2  0
  2  3  1  0
  3  4  1  0
  4  5  1  0
  5  6  1  0
  6  7  1  0
  7  8  1  0
  8  9  2  0
  8 10  1  0
 10 11  1  0
 11 12  2  0
 11 16  1  0
 12 13  1  0
 13 14  2  0
 14 15  1  0
 15 16  2  0
 16 17  1  0
 17 18  2  0
 17 19  1  0
 19 20  1  0
 20 21  2  0
 20 25  1  0
 21 22  1  0
 22 23  2  0
 23 24  1  0
 24 25  2  0
 25 26  1  0
 26 27  1  0
 26 34  1  0
 27 28  1  0
 28 29  2  0
 28 33  1  0
 29 30  1  0
 30 31  2  0
 31 32  1  0
 32 33  2  0
 34 35  2  0
 34 40  1  0
 35 36  1  0
 36 37  2  0
 37 38  1  0
 38 39  1  0
 39 40  2  0
 40 41  1  0
M  CHG  2   4   1  33   1
M  END
