
     RDKit          3D

 41 46  0  0  0  0  0  0  0  0999 V2000
    3.6750   -3.5710    1.7940 C   0  0  0  0  0  0  0  0  0  0  0  0
    3.2820   -2.6840    0.7670 O   0  0  0  0  0  0  0  0  0  0  0  0
    4.2010   -2.1510   -0.1350 C   0  0  0  0  0  0  0  0  0  0  0  0
    5.4020   -2.5480    0.0740 O   0  0  0  0  0  0  0  0  0  0  0  0
    3.9090   -1.2380   -1.2290 C   0  0  2  0  0  0  0  0  0  0  0  0
    5.1160   -1.1260   -1.9750 O   0  0  0  0  0  0  0  0  0  0  0  0
    3.4890    0.1800   -0.8150 C   0  0  1  0  0  0  0  0  0  0  0  0
    4.5930    0.8480   -0.1180 C   0  0  0  0  0  0  0  0  0  0  0  0
    3.3470    0.8400   -2.0780 O   0  0  0  0  0  0  0  0  0  0  0  0
    2.1380    0.1340   -0.2210 C   0  0  1  0  0  0  0  0  0  0  0  0
    2.2220   -0.4320    1.0340 O   0  0  0  0  0  0  0  0  0  0  0  0
    1.5770    0.7360    0.8920 C   0  0  2  0  0  0  0  0  0  0  0  0
    0.1450    0.5000    1.1880 C   0  0  0  0  0  0  0  0  0  0  0  0
   -0.3820    0.9370    2.3530 C   0  0  0  0  0  0  0  0  0  0  0  0
   -1.7570    0.7860    2.6500 C   0  0  0  0  0  0  0  0  0  0  0  0
   -2.2330    1.2470    3.8390 O   0  0  0  0  0  0  0  0  0  0  0  0
   -2.5940    0.1790    1.7390 C   0  0  0  0  0  0  0  0  0  0  0  0
   -2.0780   -0.2880    0.5230 C   0  0  0  0  0  0  0  0  0  0  0  0
   -0.7310   -0.1230    0.2750 C   0  0  0  0  0  0  0  0  0  0  0  0
   -0.1170   -0.6740   -0.8690 N   0  0  0  0  0  0  0  0  0  0  0  0
    1.1120   -0.1150   -1.3060 C   0  0  1  0  0  0  0  0  0  0  0  0
    0.8930    1.1770   -1.8960 C   0  0  0  0  0  0  0  0  0  0  0  0
    0.7390    2.1580   -2.3270 C   0  0  0  0  0  0  0  0  0  0  0  0
    0.5450    3.4870   -2.8870 C   0  0  0  0  0  0  0  0  0  0  0  0
    0.9350    4.4050   -1.8310 C   0  0  0  0  0  0  0  0  0  0  0  0
    1.3170    3.6060   -0.7340 C   0  0  0  0  0  0  0  0  0  0  0  0
    1.6120    2.9730    0.1070 C   0  0  0  0  0  0  0  0  0  0  0  0
    2.0250    2.1490    1.2160 C   0  0  1  0  0  0  0  0  0  0  0  0
    1.4930    2.7210    2.3440 O   0  0  0  0  0  0  0  0  0  0  0  0
   -2.9170   -0.9190   -0.4800 C   0  0  0  0  0  0  0  0  0  0  0  0
   -2.4630   -1.3380   -1.5820 O   0  0  0  0  0  0  0  0  0  0  0  0
   -4.3530   -1.0730   -0.2090 C   0  0  0  0  0  0  0  0  0  0  0  0
   -4.9010   -0.6230    0.9840 C   0  0  0  0  0  0  0  0  0  0  0  0
   -6.2580   -0.7450    1.2720 C   0  0  0  0  0  0  0  0  0  0  0  0
   -7.0510   -1.3280    0.3370 C   0  0  0  0  0  0  0  0  0  0  0  0
   -6.5520   -1.7840   -0.8470 C   0  0  0  0  0  0  0  0  0  0  0  0
   -7.3960   -2.3720   -1.7710 O   0  0  0  0  0  0  0  0  0  0  0  0
   -5.1700   -1.6620   -1.1460 C   0  0  0  0  0  0  0  0  0  0  0  0
   -4.7490   -2.1320   -2.3270 O   0  0  0  0  0  0  0  0  0  0  0  0
   -4.0070    0.0070    1.9620 C   0  0  0  0  0  0  0  0  0  0  0  0
   -4.5400    0.4030    3.0330 O   0  0  0  0  0  0  0  0  0  0  0  0
  1  2  1  0
  2  3  1  0
  3  4  2  0
  3  5  1  0
  5  6  1  6
  5  7  1  0
  7  8  1  1
  7  9  1  0
  7 10  1  0
 10 11  1  1
 10 12  1  0
 10 21  1  0
 12 11  1  1
 12 13  1  0
 12 28  1  0
 13 14  2  0
 13 19  1  0
 14 15  1  0
 15 16  1  0
 15 17  2  0
 17 18  1  0
 17 40  1  0
 18 19  2  0
 18 30  1  0
 19 20  1  0
 20 21  1  0
 21 22  1  1
 22 23  3  0
 23 24  1  0
 24 25  2  0
 25 26  1  0
 26 27  3  0
 27 28  1  0
 28 29  1  1
 30 31  2  0
 30 32  1  0
 32 33  2  0
 32 38  1  0
 33 34  1  0
 33 40  1  0
 34 35  2  0
 35 36  1  0
 36 37  1  0
 36 38  2  0
 38 39  1  0
 40 41  2  0
M  END
