
     RDKit          3D

 16 16  0  0  0  0  0  0  0  0999 V2000
    6.1000    0.1760   -0.2410 C   0  0  0  0  0  0  0  0  0  0  0  0
    4.8470   -0.3310    0.4660 C   0  0  0  0  0  0  0  0  0  0  0  0
    3.7290   -0.0270   -0.3190 O   0  0  0  0  0  0  0  0  0  0  0  0
    2.4810   -0.3930    0.1250 N   0  0  0  0  0  0  0  0  0  0  0  0
    1.5510    0.4620    0.3440 C   0  0  0  0  0  0  0  0  0  0  0  0
    1.8440    1.8940    0.1050 C   0  0  0  0  0  0  0  0  0  0  0  0
    0.2310    0.0040    0.8210 C   0  0  0  0  0  0  0  0  0  0  0  0
   -0.7910    0.4230   -0.2020 C   0  0  1  0  0  0  0  0  0  0  0  0
   -0.5520   -0.1360   -1.4990 N   0  0  0  0  0  0  0  0  0  0  0  0
   -0.6450   -1.5640   -1.5520 C   0  0  0  0  0  0  0  0  0  0  0  0
   -2.2030    0.1150    0.2060 C   0  0  2  0  0  0  0  0  0  0  0  0
   -2.5870    0.7460    1.5220 C   0  0  0  0  0  0  0  0  0  0  0  0
   -4.0080    0.5450    1.6990 N   0  0  0  0  0  0  0  0  0  0  0  0
   -4.6290   -0.1670    0.6290 C   0  0  0  0  0  0  0  0  0  0  0  0
   -3.8800   -1.3640    0.1520 C   0  0  0  0  0  0  0  0  0  0  0  0
   -2.4870   -1.2290    0.2780 O   0  0  0  0  0  0  0  0  0  0  0  0
  1  2  1  0
  2  3  1  0
  3  4  1  0
  4  5  2  3
  5  6  1  0
  5  7  1  0
  8  7  1  1
  8  9  1  0
  8 11  1  0
  9 10  1  0
 11 12  1  1
 11 16  1  0
 12 13  1  0
 13 14  1  0
 14 15  1  0
 15 16  1  0
M  CHG  1   9   1
M  END
