
     RDKit          3D

 23 25  0  0  0  0  0  0  0  0999 V2000
   -4.9440   -1.0950   -1.7090 C   0  0  0  0  0  0  0  0  0  0  0  0
   -4.5400   -0.3310   -0.4730 C   0  0  0  0  0  0  0  0  0  0  0  0
   -5.4190   -0.0610    0.4500 C   0  0  0  0  0  0  0  0  0  0  0  0
   -5.1180    0.6700    1.6750 C   0  0  0  0  0  0  0  0  0  0  0  0
   -3.7290    1.0500    1.7250 N   0  0  0  0  0  0  0  0  0  0  0  0
   -2.7640    0.7600    0.7230 C   0  0  0  0  0  0  0  0  0  0  0  0
   -1.4440    1.1490    0.8220 C   0  0  0  0  0  0  0  0  0  0  0  0
   -0.5160    0.8560   -0.1670 C   0  0  0  0  0  0  0  0  0  0  0  0
   -0.8900    0.1570   -1.2980 C   0  0  0  0  0  0  0  0  0  0  0  0
    0.0910   -0.1770   -2.3810 C   0  0  0  0  0  0  0  0  0  0  0  0
    1.4060    0.0520   -1.9940 O   0  0  0  0  0  0  0  0  0  0  0  0
    1.9430   -0.6260   -0.9120 C   0  0  0  0  0  0  0  0  0  0  0  0
    1.1890   -1.4400   -0.3200 O   0  0  0  0  0  0  0  0  0  0  0  0
    3.3170   -0.4230   -0.4620 C   0  0  0  0  0  0  0  0  0  0  0  0
    4.1290    0.4720   -1.1230 C   0  0  0  0  0  0  0  0  0  0  0  0
    5.4400    0.7030   -0.7390 C   0  0  0  0  0  0  0  0  0  0  0  0
    5.9610    0.0230    0.3370 C   0  0  0  0  0  0  0  0  0  0  0  0
    7.3330    0.2480    0.7600 C   0  0  0  0  0  0  0  0  0  0  0  0
    7.7600   -0.4120    1.7640 O   0  0  0  0  0  0  0  0  0  0  0  0
    5.1340   -0.8790    0.9990 C   0  0  0  0  0  0  0  0  0  0  0  0
    3.8250   -1.1030    0.6070 C   0  0  0  0  0  0  0  0  0  0  0  0
   -2.2130   -0.2250   -1.3820 C   0  0  0  0  0  0  0  0  0  0  0  0
   -3.1390    0.0630   -0.4030 C   0  0  0  0  0  0  0  0  0  0  0  0
  1  2  1  0
  2  3  2  0
  2 23  1  0
  3  4  1  0
  4  5  1  0
  5  6  1  0
  6  7  2  0
  6 23  1  0
  7  8  1  0
  8  9  2  0
  9 10  1  0
  9 22  1  0
 10 11  1  0
 11 12  1  0
 12 13  2  0
 12 14  1  0
 14 15  2  0
 14 21  1  0
 15 16  1  0
 16 17  2  0
 17 18  1  0
 17 20  1  0
 18 19  2  0
 20 21  2  0
 22 23  2  0
M  END
