
     RDKit          3D

 11 11  0  0  0  0  0  0  0  0999 V2000
   -2.2030   -0.2990   -1.6460 O   0  0  0  0  0  0  0  0  0  0  0  0
   -2.2710   -0.4010   -0.2550 C   0  0  2  0  0  0  0  0  0  0  0  0
   -3.5860   -0.1970    0.1800 O   0  0  0  0  0  0  0  0  0  0  0  0
   -1.3280    0.5840    0.3990 C   0  0  0  0  0  0  0  0  0  0  0  0
    0.0780    0.3140   -0.0290 C   0  0  2  0  0  0  0  0  0  0  0  0
    0.1490    0.4430   -1.4290 O   0  0  0  0  0  0  0  0  0  0  0  0
    0.6010   -1.0350    0.3530 C   0  0  0  0  0  0  0  0  0  0  0  0
    1.7140   -0.9720    1.1810 O   0  0  0  0  0  0  0  0  0  0  0  0
    2.7140   -0.1380    0.7730 C   0  0  0  0  0  0  0  0  0  0  0  0
    2.1920    0.9600   -0.0900 C   0  0  0  0  0  0  0  0  0  0  0  0
    0.9370    1.3370    0.4480 O   0  0  0  0  0  0  0  0  0  0  0  0
  2  1  1  6
  2  3  1  0
  2  4  1  0
  4  5  1  0
  5  6  1  6
  5  7  1  0
  5 11  1  0
  7  8  1  0
  8  9  1  0
  9 10  1  0
 10 11  1  0
M  END
