
     RDKit          3D

 12 11  0  0  0  0  0  0  0  0999 V2000
    3.9970   -0.7030   -0.0300 C   0  0  0  0  0  0  0  0  0  0  0  0
    2.9010   -0.1260    0.6140 O   0  0  0  0  0  0  0  0  0  0  0  0
    1.7700   -0.1430   -0.1780 C   0  0  0  0  0  0  0  0  0  0  0  0
    0.6390    0.4960    0.5900 C   0  0  1  0  0  0  0  0  0  0  0  0
    0.9990    1.8120    0.8990 O   0  0  0  0  0  0  0  0  0  0  0  0
   -0.5010    0.5760   -0.2100 O   0  0  0  0  0  0  0  0  0  0  0  0
   -1.5570   -0.0840    0.3750 C   0  0  2  0  0  0  0  0  0  0  0  0
   -2.0750   -1.1550   -0.5940 C   0  0  0  0  0  0  0  0  0  0  0  0
   -1.0600   -2.0580   -0.8770 O   0  0  0  0  0  0  0  0  0  0  0  0
   -2.7000    0.9120    0.5330 C   0  0  1  0  0  0  0  0  0  0  0  0
   -2.3500    1.9880    1.3240 O   0  0  0  0  0  0  0  0  0  0  0  0
   -3.0370    1.3200   -0.7630 O   0  0  0  0  0  0  0  0  0  0  0  0
  1  2  1  0
  2  3  1  0
  3  4  1  0
  4  5  1  6
  4  6  1  0
  6  7  1  0
  7  8  1  6
  7 10  1  0
  8  9  1  0
 10 11  1  1
 10 12  1  0
M  END
