
     RDKit          3D

 11 11  0  0  0  0  0  0  0  0999 V2000
    1.4150    1.3430    0.6360 O   0  0  0  0  0  0  0  0  0  0  0  0
    1.6140    0.2330   -0.1390 C   0  0  1  0  0  0  0  0  0  0  0  0
    1.5950    0.5690   -1.5140 O   0  0  0  0  0  0  0  0  0  0  0  0
    2.9520   -0.1760    0.0910 O   0  0  0  0  0  0  0  0  0  0  0  0
    0.7640   -0.9460    0.1430 C   0  0  0  0  0  0  0  0  0  0  0  0
   -0.7070   -0.7760    0.0090 C   0  0  1  0  0  0  0  0  0  0  0  0
   -1.3290   -2.0100    0.3140 O   0  0  0  0  0  0  0  0  0  0  0  0
   -1.2170    0.2280    1.0060 C   0  0  0  0  0  0  0  0  0  0  0  0
   -1.6150    1.3960    0.1670 C   0  0  0  0  0  0  0  0  0  0  0  0
   -1.2800    1.1500   -1.1290 O   0  0  0  0  0  0  0  0  0  0  0  0
   -1.1700   -0.2280   -1.2960 C   0  0  0  0  0  0  0  0  0  0  0  0
  2  1  1  1
  2  3  1  0
  2  4  1  0
  2  5  1  0
  5  6  1  0
  6  7  1  1
  6  8  1  0
  6 11  1  0
  8  9  1  0
  9 10  1  0
 10 11  1  0
M  END
