
     RDKit          3D

 11 10  0  0  0  0  0  0  0  0999 V2000
   -0.0450    1.1970    0.4990 C   0  0  0  0  0  0  0  0  0  0  0  0
    0.0830   -0.0820   -0.3430 C   0  0  1  0  0  0  0  0  0  0  0  0
    0.3000    0.2680   -1.7870 C   0  0  0  0  0  0  0  0  0  0  0  0
    1.5190    0.8670   -1.9870 O   0  0  0  0  0  0  0  0  0  0  0  0
    0.9790   -0.9670    0.1490 O   0  0  0  0  0  0  0  0  0  0  0  0
    2.2660   -0.5670    0.2750 C   0  0  0  0  0  0  0  0  0  0  0  0
    2.3620    0.5380    1.1230 O   0  0  0  0  0  0  0  0  0  0  0  0
   -1.3220   -0.7160   -0.2740 C   0  0  2  0  0  0  0  0  0  0  0  0
   -2.2150    0.1950   -0.7660 O   0  0  0  0  0  0  0  0  0  0  0  0
   -1.6110   -1.2660    1.0760 C   0  0  0  0  0  0  0  0  0  0  0  0
   -1.6890   -0.3530    2.0970 O   0  0  0  0  0  0  0  0  0  0  0  0
  2  1  1  1
  2  3  1  0
  2  5  1  0
  2  8  1  0
  3  4  1  0
  5  6  1  0
  6  7  1  0
  8  9  1  1
  8 10  1  0
 10 11  1  0
M  END
