
     RDKit          3D

 12 11  0  0  0  0  0  0  0  0999 V2000
   -1.4510    1.3980    1.0010 C   0  0  0  0  0  0  0  0  0  0  0  0
   -1.2800   -0.0560    0.5680 C   0  0  2  0  0  0  0  0  0  0  0  0
   -2.6580   -0.5980    0.2780 C   0  0  0  0  0  0  0  0  0  0  0  0
   -0.7300   -0.7430    1.6170 O   0  0  0  0  0  0  0  0  0  0  0  0
   -0.4370   -0.1000   -0.6840 C   0  0  1  0  0  0  0  0  0  0  0  0
   -1.1260    0.6440   -1.6710 O   0  0  0  0  0  0  0  0  0  0  0  0
    0.7830    0.5360   -0.5130 O   0  0  0  0  0  0  0  0  0  0  0  0
    1.8540   -0.2510   -0.8740 C   0  0  1  0  0  0  0  0  0  0  0  0
    2.5770    0.3000   -1.9440 O   0  0  0  0  0  0  0  0  0  0  0  0
    2.8050   -0.4900    0.2490 C   0  0  0  0  0  0  0  0  0  0  0  0
    2.4080   -0.9830    1.3360 O   0  0  0  0  0  0  0  0  0  0  0  0
    4.1590   -0.1850    0.1510 O   0  0  0  0  0  0  0  0  0  0  0  0
  2  1  1  1
  2  3  1  0
  2  4  1  0
  2  5  1  0
  5  6  1  6
  5  7  1  0
  7  8  1  0
  8  9  1  6
  8 10  1  0
 10 11  2  0
 10 12  1  0
M  END
