
     RDKit          3D

 11 11  0  0  0  0  0  0  0  0999 V2000
    3.8260   -1.0380   -0.4020 C   0  0  0  0  0  0  0  0  0  0  0  0
    2.6130   -0.5540    0.1310 O   0  0  0  0  0  0  0  0  0  0  0  0
    1.9320    0.2010   -0.7960 C   0  0  0  0  0  0  0  0  0  0  0  0
    0.6520    0.6890   -0.1770 C   0  0  1  0  0  0  0  0  0  0  0  0
   -0.1190    1.4570   -1.0090 O   0  0  0  0  0  0  0  0  0  0  0  0
   -1.4520    1.0760   -0.8290 C   0  0  0  0  0  0  0  0  0  0  0  0
   -1.3670    0.3160    0.4710 C   0  0  1  0  0  0  0  0  0  0  0  0
   -2.5180   -0.6410    0.6490 C   0  0  1  0  0  0  0  0  0  0  0  0
   -3.6620    0.1390    0.8480 O   0  0  0  0  0  0  0  0  0  0  0  0
   -2.7410   -1.4120   -0.4710 O   0  0  0  0  0  0  0  0  0  0  0  0
   -0.1550   -0.3780    0.2630 O   0  0  0  0  0  0  0  0  0  0  0  0
  1  2  1  0
  2  3  1  0
  4  3  1  6
  4  5  1  0
  4 11  1  0
  5  6  1  0
  7  6  1  6
  7  8  1  0
  7 11  1  0
  8  9  1  6
  8 10  1  0
M  END
