
     RDKit          3D

 32 33  0  0  0  0  0  0  0  0999 V2000
    0.8050    3.6010    1.1020 O   0  0  0  0  0  0  0  0  0  0  0  0
    1.2690    2.4410    1.2670 C   0  0  0  0  0  0  0  0  0  0  0  0
    0.4410    1.2920    1.3260 N   0  0  0  0  0  0  0  0  0  0  0  0
    0.9870   -0.0440    1.2800 C   0  0  1  0  0  0  0  0  0  0  0  0
    0.8580   -0.5550   -0.1210 C   0  0  0  0  0  0  0  0  0  0  0  0
   -0.4860   -0.5850   -0.5150 O   0  0  0  0  0  0  0  0  0  0  0  0
   -1.3880   -1.4020    0.1330 C   0  0  0  0  0  0  0  0  0  0  0  0
   -0.9430   -2.1190    1.0870 O   0  0  0  0  0  0  0  0  0  0  0  0
   -2.8290   -1.4570   -0.2510 C   0  0  1  0  0  0  0  0  0  0  0  0
   -3.4610   -2.3910    0.6440 O   0  0  0  0  0  0  0  0  0  0  0  0
   -4.1570   -3.4710    0.1750 C   0  0  0  0  0  0  0  0  0  0  0  0
   -4.2390   -3.6390   -1.0690 O   0  0  0  0  0  0  0  0  0  0  0  0
   -4.7760   -4.3850    1.0860 N   0  0  0  0  0  0  0  0  0  0  0  0
   -5.4560   -5.4380    0.6210 O   0  0  0  0  0  0  0  0  0  0  0  0
   -3.4210   -0.1720   -0.0530 O   0  0  0  0  0  0  0  0  0  0  0  0
   -4.0990    0.4470   -1.1140 C   0  0  0  0  0  0  0  0  0  0  0  0
   -4.1390   -0.1980   -2.2030 O   0  0  0  0  0  0  0  0  0  0  0  0
   -4.7130    1.7070   -1.0140 N   0  0  0  0  0  0  0  0  0  0  0  0
   -5.5720    2.4530   -2.4000 P   0  0  0  0  0  0  0  0  0  0  0  0
   -4.6890    3.7670   -3.0980 O   0  0  0  0  0  0  0  0  0  0  0  0
   -7.1300    3.0370   -1.8910 O   0  0  0  0  0  0  0  0  0  0  0  0
    2.4390   -0.0710    1.6370 C   0  0  0  0  0  0  0  0  0  0  0  0
    2.9150   -1.1710    2.0040 O   0  0  0  0  0  0  0  0  0  0  0  0
    3.2890    1.0580    1.5820 N   0  0  0  0  0  0  0  0  0  0  0  0
    4.7020    0.8840    1.7260 C   0  0  0  0  0  0  0  0  0  0  0  0
    5.6260    0.6010    0.1770 P   0  0  0  0  0  0  0  0  0  0  0  0
    5.3820   -0.9200   -0.5520 O   0  0  0  0  0  0  0  0  0  0  0  0
    5.6960   -0.8760   -1.8680 C   0  0  0  0  0  0  0  0  0  0  0  0
    6.0010    0.8540   -2.4130 P   0  0  0  0  0  0  0  0  0  0  0  0
    7.7290    1.1430   -2.2680 O   0  0  0  0  0  0  0  0  0  0  0  0
    5.2740    1.7450   -1.0790 O   0  0  0  0  0  0  0  0  0  0  0  0
    2.6950    2.3020    1.3970 N   0  0  0  0  0  0  0  0  0  0  0  0
  1  2  2  0
  2  3  1  0
  2 32  1  0
  3  4  1  0
  4  5  1  6
  4 22  1  0
  5  6  1  0
  6  7  1  0
  7  8  2  0
  7  9  1  0
  9 10  1  1
  9 15  1  0
 10 11  1  0
 11 12  2  0
 11 13  1  0
 13 14  1  0
 15 16  1  0
 16 17  2  0
 16 18  1  0
 18 19  1  0
 19 20  1  0
 19 21  1  0
 22 23  2  0
 22 24  1  0
 24 25  1  0
 24 32  1  0
 25 26  1  0
 26 27  1  0
 26 31  1  0
 27 28  1  0
 28 29  1  0
 29 30  1  0
 29 31  1  0
M  END
