
     RDKit          3D

 44 48  0  0  0  0  0  0  0  0999 V2000
  -11.0260    2.2240    0.8360 N   0  0  0  0  0  0  0  0  0  0  0  0
   -9.8700    1.5860    1.2780 C   0  0  0  0  0  0  0  0  0  0  0  0
   -9.3620    1.8730    2.3860 O   0  0  0  0  0  0  0  0  0  0  0  0
   -9.2110    0.5710    0.4700 C   0  0  0  0  0  0  0  0  0  0  0  0
   -9.9050   -0.4440   -0.1230 C   0  0  0  0  0  0  0  0  0  0  0  0
   -9.2400   -1.3520   -0.9170 C   0  0  0  0  0  0  0  0  0  0  0  0
   -7.8540   -1.2460   -1.1250 C   0  0  0  0  0  0  0  0  0  0  0  0
   -7.1630   -0.2350   -0.5330 C   0  0  0  0  0  0  0  0  0  0  0  0
   -5.7390   -0.0380   -0.7500 C   0  0  2  0  0  0  0  0  0  0  0  0
   -4.9070   -1.1200   -0.5730 O   0  0  0  0  0  0  0  0  0  0  0  0
   -3.6860   -0.5870   -0.2950 C   0  0  2  0  0  0  0  0  0  0  0  0
   -3.0940   -1.2230    0.9560 C   0  0  0  0  0  0  0  0  0  0  0  0
   -1.9360   -0.4830    1.2130 O   0  0  0  0  0  0  0  0  0  0  0  0
   -0.5750   -1.4020    1.0230 P   0  0  0  0  0  0  0  0  0  0  0  0
    0.5730   -1.6400    2.1360 O   0  0  0  0  0  0  0  0  0  0  0  0
   -1.2160   -2.7220    1.2790 O   0  0  0  0  0  0  0  0  0  0  0  0
   -0.3220   -1.6940   -0.6160 O   0  0  0  0  0  0  0  0  0  0  0  0
    0.9190   -1.1640   -1.3410 P   0  0  0  0  0  0  0  0  0  0  0  0
    0.9090    0.1900   -0.3730 O   0  0  0  0  0  0  0  0  0  0  0  0
    1.5860   -2.5750   -0.6830 O   0  0  0  0  0  0  0  0  0  0  0  0
    2.3170   -0.7810   -1.8420 O   0  0  0  0  0  0  0  0  0  0  0  0
    3.4200   -1.5590   -1.4730 C   0  0  0  0  0  0  0  0  0  0  0  0
    4.1670   -0.7960   -0.4560 C   0  0  1  0  0  0  0  0  0  0  0  0
    5.2120   -1.4110    0.1510 O   0  0  0  0  0  0  0  0  0  0  0  0
    5.8270   -0.4020    0.9520 C   0  0  1  0  0  0  0  0  0  0  0  0
    7.2120   -0.3940    0.4590 N   0  0  0  0  0  0  0  0  0  0  0  0
    7.8630   -1.3770   -0.1670 C   0  0  0  0  0  0  0  0  0  0  0  0
    9.0990   -0.9320   -0.5040 N   0  0  0  0  0  0  0  0  0  0  0  0
    9.2300    0.3630   -0.0810 C   0  0  0  0  0  0  0  0  0  0  0  0
   10.2470    1.2850   -0.1660 C   0  0  0  0  0  0  0  0  0  0  0  0
   11.4070    0.9010   -0.8400 N   0  0  0  0  0  0  0  0  0  0  0  0
   10.0210    2.5050    0.3660 N   0  0  0  0  0  0  0  0  0  0  0  0
    8.8370    2.7990    0.9560 C   0  0  0  0  0  0  0  0  0  0  0  0
    7.8820    1.8940    1.0230 N   0  0  0  0  0  0  0  0  0  0  0  0
    8.0330    0.6560    0.5140 C   0  0  0  0  0  0  0  0  0  0  0  0
    5.1480    0.9030    0.6080 C   0  0  2  0  0  0  0  0  0  0  0  0
    3.9560    0.9930    1.2890 O   0  0  0  0  0  0  0  0  0  0  0  0
    4.7690    0.5180   -0.8610 C   0  0  2  0  0  0  0  0  0  0  0  0
    3.8940    1.4370   -1.4020 O   0  0  0  0  0  0  0  0  0  0  0  0
   -3.6910    0.8800   -0.1960 C   0  0  1  0  0  0  0  0  0  0  0  0
   -3.4100    1.4630   -1.4510 O   0  0  0  0  0  0  0  0  0  0  0  0
   -5.1880    1.1090    0.1130 C   0  0  1  0  0  0  0  0  0  0  0  0
   -5.5810    2.3450   -0.3290 O   0  0  0  0  0  0  0  0  0  0  0  0
   -7.8350    0.6640    0.2570 C   0  0  0  0  0  0  0  0  0  0  0  0
  1  2  1  0
  2  3  2  0
  2  4  1  0
  4  5  2  0
  4 44  1  0
  5  6  1  0
  6  7  2  0
  7  8  1  0
  9  8  1  1
  8 44  2  0
  9 10  1  0
  9 42  1  0
 10 11  1  0
 11 12  1  1
 11 40  1  0
 12 13  1  0
 13 14  1  0
 14 15  1  0
 14 16  1  0
 14 17  1  0
 17 18  1  0
 18 19  1  0
 18 20  1  0
 18 21  1  0
 21 22  1  0
 23 22  1  6
 23 24  1  0
 23 38  1  0
 24 25  1  0
 25 26  1  6
 25 36  1  0
 26 27  1  0
 26 35  1  0
 27 28  2  0
 28 29  1  0
 29 30  2  0
 29 35  1  0
 30 31  1  0
 30 32  1  0
 32 33  2  0
 33 34  1  0
 34 35  2  0
 36 37  1  1
 36 38  1  0
 38 39  1  1
 40 41  1  6
 40 42  1  0
 42 43  1  6
M  END
