
     RDKit          3D

 31 32  0  0  0  0  0  0  0  0999 V2000
   -5.9070   -1.3100    0.5430 N   0  0  0  0  0  0  0  0  0  0  0  0
   -4.7040   -0.7820    0.5270 C   0  0  0  0  0  0  0  0  0  0  0  0
   -3.9720   -0.5510   -0.7510 C   0  0  1  0  0  0  0  0  0  0  0  0
   -3.8210    0.8160   -0.9680 O   0  0  0  0  0  0  0  0  0  0  0  0
   -4.4090    1.2960   -2.5320 P   0  0  0  0  0  0  0  0  0  0  0  0
   -3.7800    0.2070   -3.7340 O   0  0  0  0  0  0  0  0  0  0  0  0
   -6.1390    1.2060   -2.6010 O   0  0  0  0  0  0  0  0  0  0  0  0
   -2.5840   -1.0840   -0.5170 C   0  0  0  0  0  0  0  0  0  0  0  0
   -2.0900   -1.8710   -1.3910 O   0  0  0  0  0  0  0  0  0  0  0  0
   -1.8410   -0.7240    0.6420 N   0  0  0  0  0  0  0  0  0  0  0  0
   -0.4220   -0.7370    0.5730 C   0  0  0  0  0  0  0  0  0  0  0  0
    0.0750   -1.0840   -0.5610 O   0  0  0  0  0  0  0  0  0  0  0  0
    0.4420   -0.4220    1.5770 O   0  0  0  0  0  0  0  0  0  0  0  0
    1.8370   -0.4550    1.4040 C   0  0  0  0  0  0  0  0  0  0  0  0
    2.2710    0.5650    0.3860 C   0  0  0  0  0  0  0  0  0  0  0  0
    3.7650    0.5230    0.2300 C   0  0  1  0  0  0  0  0  0  0  0  0
    4.3230    0.7830    1.4970 O   0  0  0  0  0  0  0  0  0  0  0  0
    4.2240   -0.7940   -0.2640 C   0  0  0  0  0  0  0  0  0  0  0  0
    5.4820   -1.0340    0.3500 O   0  0  0  0  0  0  0  0  0  0  0  0
    6.4880    0.3080   -0.1660 P   0  0  0  0  0  0  0  0  0  0  0  0
    7.8090   -0.3580   -1.0750 O   0  0  0  0  0  0  0  0  0  0  0  0
    5.5420    1.3660   -1.2280 N   0  0  0  0  0  0  0  0  0  0  0  0
    5.5600    1.0180   -2.5120 O   0  0  0  0  0  0  0  0  0  0  0  0
    4.5110    1.4230   -3.1730 O   0  0  0  0  0  0  0  0  0  0  0  0
    4.2120    1.6480   -0.7260 C   0  0  0  0  0  0  0  0  0  0  0  0
   -2.6030   -0.3790    1.7850 C   0  0  0  0  0  0  0  0  0  0  0  0
   -2.0620   -0.0390    2.8810 N   0  0  0  0  0  0  0  0  0  0  0  0
   -4.0540   -0.4090    1.7260 N   0  0  0  0  0  0  0  0  0  0  0  0
   -5.0320    0.0180    3.1600 P   0  0  0  0  0  0  0  0  0  0  0  0
   -6.6810    0.2030    2.7440 O   0  0  0  0  0  0  0  0  0  0  0  0
   -4.3730    1.3690    3.9950 O   0  0  0  0  0  0  0  0  0  0  0  0
  1  2  2  0
  2  3  1  0
  2 28  1  0
  3  4  1  1
  3  8  1  0
  4  5  1  0
  5  6  1  0
  5  7  1  0
  8  9  2  0
  8 10  1  0
 10 11  1  0
 10 26  1  0
 11 12  2  0
 11 13  1  0
 13 14  1  0
 14 15  1  0
 15 16  1  0
 16 17  1  1
 16 18  1  0
 16 25  1  0
 18 19  1  0
 19 20  1  0
 20 21  1  0
 20 22  1  0
 22 23  1  0
 22 25  1  0
 23 24  1  0
 26 27  2  0
 26 28  1  0
 28 29  1  0
 29 30  1  0
 29 31  1  0
M  END
