
     RDKit          3D

 32 33  0  0  0  0  0  0  0  0999 V2000
   -6.0800   -1.7690    4.2560 O   0  0  0  0  0  0  0  0  0  0  0  0
   -5.8360   -2.1240    2.7800 P   0  0  0  0  0  0  0  0  0  0  0  0
   -5.0380   -1.1100    1.6520 O   0  0  0  0  0  0  0  0  0  0  0  0
   -5.6850   -1.0680    0.4110 C   0  0  0  0  0  0  0  0  0  0  0  0
   -4.8990   -0.1510   -0.4990 C   0  0  1  0  0  0  0  0  0  0  0  0
   -4.8240    1.5720    0.1340 P   0  0  0  0  0  0  0  0  0  0  0  0
   -6.0770    2.2090    0.8310 O   0  0  0  0  0  0  0  0  0  0  0  0
   -3.5330   -0.6430   -0.6780 N   0  0  0  0  0  0  0  0  0  0  0  0
   -3.1110   -0.1510   -1.9440 C   0  0  0  0  0  0  0  0  0  0  0  0
   -1.9020   -0.0200   -2.3680 N   0  0  0  0  0  0  0  0  0  0  0  0
   -0.7600   -0.3570   -1.6170 C   0  0  0  0  0  0  0  0  0  0  0  0
    0.2420    0.3960   -1.3970 N   0  0  0  0  0  0  0  0  0  0  0  0
    1.2380   -0.2600   -0.5910 C   0  0  0  0  0  0  0  0  0  0  0  0
    2.3740    0.2630   -0.2030 C   0  0  0  0  0  0  0  0  0  0  0  0
    2.6800    1.6730   -0.6320 C   0  0  0  0  0  0  0  0  0  0  0  0
    2.8420    2.4550    0.5250 O   0  0  0  0  0  0  0  0  0  0  0  0
    3.1380    3.8200    0.3830 C   0  0  0  0  0  0  0  0  0  0  0  0
    3.2470    4.2860   -0.7840 O   0  0  0  0  0  0  0  0  0  0  0  0
    3.3080    4.6390    1.4810 O   0  0  0  0  0  0  0  0  0  0  0  0
    3.5900    5.9340    1.2540 O   0  0  0  0  0  0  0  0  0  0  0  0
    3.3450   -0.4140    0.6000 C   0  0  0  0  0  0  0  0  0  0  0  0
    4.4220    0.1940    0.9200 O   0  0  0  0  0  0  0  0  0  0  0  0
    3.1830   -1.7220    1.0640 N   0  0  0  0  0  0  0  0  0  0  0  0
    4.1910   -2.2690    1.8330 O   0  0  0  0  0  0  0  0  0  0  0  0
    5.0960   -3.2900    0.7560 P   0  0  0  0  0  0  0  0  0  0  0  0
    4.9330   -2.7190   -0.8690 O   0  0  0  0  0  0  0  0  0  0  0  0
    6.7790   -3.1890    1.2210 O   0  0  0  0  0  0  0  0  0  0  0  0
    0.7370   -1.5080   -0.3350 O   0  0  0  0  0  0  0  0  0  0  0  0
   -0.4920   -1.5850   -0.9590 N   0  0  0  0  0  0  0  0  0  0  0  0
   -4.3390    0.1720   -2.6590 C   0  0  0  0  0  0  0  0  0  0  0  0
   -4.4050    0.6450   -3.8370 O   0  0  0  0  0  0  0  0  0  0  0  0
   -5.3850   -0.1360   -1.8070 O   0  0  0  0  0  0  0  0  0  0  0  0
  1  2  2  0
  2  3  1  0
  3  4  1  0
  5  4  1  1
  5  6  1  0
  5  8  1  0
  5 32  1  0
  6  7  2  0
  8  9  1  0
  9 10  2  3
  9 30  1  0
 10 11  1  0
 11 12  2  0
 11 29  1  0
 12 13  1  0
 13 14  2  3
 13 28  1  0
 14 15  1  0
 14 21  1  0
 15 16  1  0
 16 17  1  0
 17 18  2  0
 17 19  1  0
 19 20  1  0
 21 22  2  0
 21 23  1  0
 23 24  1  0
 24 25  1  0
 25 26  1  0
 25 27  1  0
 28 29  1  0
 30 31  2  0
 30 32  1  0
M  END
