
     RDKit          3D

 31 33  0  0  0  0  0  0  0  0999 V2000
   -1.2860   -2.1580   -1.5290 N   0  0  0  0  0  0  0  0  0  0  0  0
   -1.8280   -1.5150   -0.5540 C   0  0  0  0  0  0  0  0  0  0  0  0
   -3.0350   -2.0370   -0.0150 N   0  0  0  0  0  0  0  0  0  0  0  0
   -3.4780   -3.7640   -0.1360 P   0  0  0  0  0  0  0  0  0  0  0  0
   -3.0160   -4.4390   -1.6640 O   0  0  0  0  0  0  0  0  0  0  0  0
   -2.8240   -4.6850    1.1820 O   0  0  0  0  0  0  0  0  0  0  0  0
   -1.2220   -0.2680    0.0000 C   0  0  2  0  0  0  0  0  0  0  0  0
   -0.8980   -0.3710    1.3340 O   0  0  0  0  0  0  0  0  0  0  0  0
    0.2400   -0.3090    2.0310 C   0  0  0  0  0  0  0  0  0  0  0  0
    0.1900   -0.4580    3.3880 N   0  0  0  0  0  0  0  0  0  0  0  0
    1.3320   -0.3970    4.0950 C   0  0  0  0  0  0  0  0  0  0  0  0
    1.3400   -0.5300    5.3630 O   0  0  0  0  0  0  0  0  0  0  0  0
    2.4930   -0.1980    3.5280 O   0  0  0  0  0  0  0  0  0  0  0  0
    2.6240   -0.0460    2.2430 C   0  0  0  0  0  0  0  0  0  0  0  0
    3.6150    0.1600    1.4180 O   0  0  0  0  0  0  0  0  0  0  0  0
    3.2130    0.2420    0.1900 C   0  0  0  0  0  0  0  0  0  0  0  0
    4.0450    0.4680   -1.0080 C   0  0  2  0  0  0  0  0  0  0  0  0
    5.1980   -0.3060   -1.0280 O   0  0  0  0  0  0  0  0  0  0  0  0
    5.8590   -0.0390    0.1030 O   0  0  0  0  0  0  0  0  0  0  0  0
    5.8600    1.7200   -0.0260 P   0  0  0  0  0  0  0  0  0  0  0  0
    7.2450    2.1040   -1.0350 O   0  0  0  0  0  0  0  0  0  0  0  0
    4.4660    1.8170   -1.1030 O   0  0  0  0  0  0  0  0  0  0  0  0
    1.8790    0.0840    0.1750 N   0  0  0  0  0  0  0  0  0  0  0  0
    1.4670   -0.1020    1.4630 C   0  0  0  0  0  0  0  0  0  0  0  0
   -2.1520    0.8880   -0.1850 C   0  0  0  0  0  0  0  0  0  0  0  0
   -2.4810    1.5520    0.8200 O   0  0  0  0  0  0  0  0  0  0  0  0
   -2.6780    1.2680   -1.4470 N   0  0  0  0  0  0  0  0  0  0  0  0
   -3.5790    2.3910   -1.6190 C   0  0  0  0  0  0  0  0  0  0  0  0
   -2.9590    3.5660   -1.1930 O   0  0  0  0  0  0  0  0  0  0  0  0
   -4.0330    4.8910   -1.3990 P   0  0  0  0  0  0  0  0  0  0  0  0
   -5.2500    4.7420   -2.3620 O   0  0  0  0  0  0  0  0  0  0  0  0
  1  2  2  0
  2  3  1  0
  2  7  1  0
  3  4  1  0
  4  5  1  0
  4  6  1  0
  7  8  1  1
  7 25  1  0
  8  9  1  0
  9 10  2  0
  9 24  1  0
 10 11  1  0
 11 12  2  0
 11 13  1  0
 13 14  1  0
 14 15  1  0
 14 24  2  0
 15 16  1  0
 17 16  1  1
 16 23  2  0
 17 18  1  0
 17 22  1  0
 18 19  1  0
 19 20  1  0
 20 21  1  0
 20 22  1  0
 23 24  1  0
 25 26  2  0
 25 27  1  0
 27 28  1  0
 28 29  1  0
 29 30  1  0
 30 31  2  0
M  END
