
     RDKit          3D

 39 42  0  0  0  0  0  0  0  0999 V2000
   -8.9230   -0.5170   -0.2010 C   0  0  0  0  0  0  0  0  0  0  0  0
   -8.6520    0.3770   -1.4190 C   0  0  1  0  0  0  0  0  0  0  0  0
   -9.3660    1.6780   -1.3300 C   0  0  0  0  0  0  0  0  0  0  0  0
   -8.6750    2.7540   -0.5800 C   0  0  0  0  0  0  0  0  0  0  0  0
   -7.2180    2.5610   -0.3560 C   0  0  0  0  0  0  0  0  0  0  0  0
   -6.5810    1.8090   -1.4830 C   0  0  1  0  0  0  0  0  0  0  0  0
   -5.1470    1.6230   -1.1540 C   0  0  0  0  0  0  0  0  0  0  0  0
   -4.5230    1.0350   -0.1400 C   0  0  0  0  0  0  0  0  0  0  0  0
   -3.1780    1.0030   -0.0810 C   0  0  0  0  0  0  0  0  0  0  0  0
   -2.3810    0.3390    1.0690 C   0  0  0  0  0  0  0  0  0  0  0  0
   -2.2590   -1.0480    0.8620 N   0  0  0  0  0  0  0  0  0  0  0  0
   -3.5000   -1.8280    0.7840 C   0  0  0  0  0  0  0  0  0  0  0  0
   -1.0350   -1.7360    0.7250 C   0  0  0  0  0  0  0  0  0  0  0  0
    0.1820   -1.1110    0.7730 C   0  0  0  0  0  0  0  0  0  0  0  0
    1.4060   -1.7800    0.6430 C   0  0  0  0  0  0  0  0  0  0  0  0
    2.6180   -1.0180    0.7070 C   0  0  0  0  0  0  0  0  0  0  0  0
    2.4370    0.2670    0.8520 O   0  0  0  0  0  0  0  0  0  0  0  0
    3.9580   -1.4430    0.6380 N   0  0  0  0  0  0  0  0  0  0  0  0
    4.5190   -2.7330    0.4920 C   0  0  0  0  0  0  0  0  0  0  0  0
    6.0380   -2.6080    0.4790 C   0  0  0  0  0  0  0  0  0  0  0  0
    6.3200   -1.1380    0.4640 C   0  0  1  0  0  0  0  0  0  0  0  0
    7.3140   -0.8340    1.5430 C   0  0  0  0  0  0  0  0  0  0  0  0
    7.6780    0.5930    1.6410 C   0  0  0  0  0  0  0  0  0  0  0  0
    8.4200    0.9840    2.6040 O   0  0  0  0  0  0  0  0  0  0  0  0
    7.2790    1.5710    0.7630 O   0  0  0  0  0  0  0  0  0  0  0  0
    7.6140    2.9360    0.8480 C   0  0  0  0  0  0  0  0  0  0  0  0
    9.0740    3.1140    0.7920 C   0  0  0  0  0  0  0  0  0  0  0  0
    9.9580    2.0210    0.6790 N   0  0  0  0  0  0  0  0  0  0  0  0
    9.5450    4.2750    0.8470 O   0  0  0  0  0  0  0  0  0  0  0  0
    6.8070   -0.7920   -0.9000 C   0  0  0  0  0  0  0  0  0  0  0  0
    5.9500   -1.0190   -2.0000 N   0  0  0  0  0  0  0  0  0  0  0  0
    7.9580   -0.3170   -1.0050 O   0  0  0  0  0  0  0  0  0  0  0  0
    5.0430   -0.4320    0.7240 C   0  0  0  0  0  0  0  0  0  0  0  0
    1.3100   -3.1290    0.4600 C   0  0  0  0  0  0  0  0  0  0  0  0
    0.0770   -3.8120    0.4050 C   0  0  0  0  0  0  0  0  0  0  0  0
   -1.0300   -3.0930    0.5380 N   0  0  0  0  0  0  0  0  0  0  0  0
   -2.4930    1.6210   -1.1410 C   0  0  0  0  0  0  0  0  0  0  0  0
   -3.8400    2.2200   -2.1760 S   0  0  0  0  0  0  0  0  0  0  0  0
   -7.1960    0.4560   -1.7070 C   0  0  0  0  0  0  0  0  0  0  0  0
  2  1  1  1
  2  3  1  0
  2 39  1  0
  3  4  1  0
  4  5  1  0
  5  6  1  0
  6  7  1  1
  6 39  1  0
  7  8  2  0
  7 38  1  0
  8  9  1  0
  9 10  1  0
  9 37  2  0
 10 11  1  0
 11 12  1  0
 11 13  1  0
 13 14  2  0
 13 36  1  0
 14 15  1  0
 15 16  1  0
 15 34  2  0
 16 17  2  0
 16 18  1  0
 18 19  1  0
 18 33  1  0
 19 20  1  0
 20 21  1  0
 21 22  1  1
 21 30  1  0
 21 33  1  0
 22 23  1  0
 23 24  2  0
 23 25  1  0
 25 26  1  0
 26 27  1  0
 27 28  1  0
 27 29  2  0
 30 31  1  0
 30 32  2  0
 34 35  1  0
 35 36  2  0
 37 38  1  0
M  END
