
     RDKit          3D

 38 41  0  0  0  0  0  0  0  0999 V2000
   -7.0270    0.5650   -3.6370 C   0  0  0  0  0  0  0  0  0  0  0  0
   -6.9040    0.3220   -2.2590 O   0  0  0  0  0  0  0  0  0  0  0  0
   -5.6630    0.3600   -1.6530 C   0  0  0  0  0  0  0  0  0  0  0  0
   -4.5240    0.6420   -2.4100 C   0  0  0  0  0  0  0  0  0  0  0  0
   -3.2810    0.6760   -1.7770 C   0  0  0  0  0  0  0  0  0  0  0  0
   -3.1930    0.4370   -0.4480 C   0  0  0  0  0  0  0  0  0  0  0  0
   -1.9130    0.4590    0.2470 N   0  0  0  0  0  0  0  0  0  0  0  0
   -1.8720    0.1580    1.6210 C   0  0  0  0  0  0  0  0  0  0  0  0
   -0.6050    0.0440    2.2850 C   0  0  0  0  0  0  0  0  0  0  0  0
   -0.7660   -0.2180    3.5840 O   0  0  0  0  0  0  0  0  0  0  0  0
    0.7170    0.1370    1.9140 N   0  0  0  0  0  0  0  0  0  0  0  0
    1.7030   -0.0520    3.0410 C   0  0  0  0  0  0  0  0  0  0  0  0
    2.3990    1.3080    3.0640 C   0  0  0  0  0  0  0  0  0  0  0  0
    3.3220    1.2590    1.9490 N   0  0  0  0  0  0  0  0  0  0  0  0
    4.5890    0.7500    2.4280 C   0  0  0  0  0  0  0  0  0  0  0  0
    5.5320    0.6910    1.2620 C   0  0  0  0  0  0  0  0  0  0  0  0
    5.7940    0.8890    0.1840 N   0  0  0  0  0  0  0  0  0  0  0  0
    6.8710    0.6360   -0.5260 C   0  0  0  0  0  0  0  0  0  0  0  0
    7.8960    0.0080    0.1530 C   0  0  0  0  0  0  0  0  0  0  0  0
    7.1320   -0.1510    1.8430 S   0  0  0  0  0  0  0  0  0  0  0  0
    9.1960   -0.4080   -0.3530 C   0  0  0  0  0  0  0  0  0  0  0  0
    9.0550   -0.6970   -1.8380 C   0  0  1  0  0  0  0  0  0  0  0  0
    8.3170   -1.9820   -2.1010 C   0  0  0  0  0  0  0  0  0  0  0  0
    8.4240    0.4940   -2.4540 C   0  0  0  0  0  0  0  0  0  0  0  0
    7.1150    0.9390   -1.9610 C   0  0  0  0  0  0  0  0  0  0  0  0
    2.8460    0.6350    0.7860 C   0  0  0  0  0  0  0  0  0  0  0  0
    1.3610    0.3680    0.6770 C   0  0  1  0  0  0  0  0  0  0  0  0
    1.1270   -0.8110   -0.2230 C   0  0  0  0  0  0  0  0  0  0  0  0
    0.3520   -1.9020    0.2480 N   0  0  0  0  0  0  0  0  0  0  0  0
    1.6130   -0.8110   -1.3590 O   0  0  0  0  0  0  0  0  0  0  0  0
   -4.3350    0.1600    0.2870 C   0  0  0  0  0  0  0  0  0  0  0  0
   -5.5780    0.1180   -0.3020 C   0  0  0  0  0  0  0  0  0  0  0  0
   -6.7560   -0.1740    0.4920 C   0  0  0  0  0  0  0  0  0  0  0  0
   -6.6880   -0.3950    1.7410 O   0  0  0  0  0  0  0  0  0  0  0  0
   -8.0350   -0.2320   -0.0510 O   0  0  0  0  0  0  0  0  0  0  0  0
   -9.1900   -0.5060    0.6750 C   0  0  2  0  0  0  0  0  0  0  0  0
   -9.9580   -1.7110    0.2040 C   0  0  0  0  0  0  0  0  0  0  0  0
  -10.1140    0.6970    0.5450 C   0  0  0  0  0  0  0  0  0  0  0  0
  1  2  1  0
  2  3  1  0
  3  4  2  0
  3 32  1  0
  4  5  1  0
  5  6  2  0
  6  7  1  0
  6 31  1  0
  7  8  1  0
  8  9  1  0
  9 10  2  0
  9 11  1  0
 11 12  1  0
 11 27  1  0
 12 13  1  0
 13 14  1  0
 14 15  1  0
 14 26  1  0
 15 16  1  0
 16 17  2  0
 16 20  1  0
 17 18  1  0
 18 19  2  0
 18 25  1  0
 19 20  1  0
 19 21  1  0
 21 22  1  0
 22 23  1  1
 22 24  1  0
 24 25  1  0
 26 27  1  0
 27 28  1  6
 28 29  1  0
 28 30  2  0
 31 32  2  0
 32 33  1  0
 33 34  2  0
 33 35  1  0
 35 36  1  0
 36 37  1  6
 36 38  1  0
M  END
