
     RDKit          3D

 39 42  0  0  0  0  0  0  0  0999 V2000
  -10.0430    0.9900    1.6370 C   0  0  0  0  0  0  0  0  0  0  0  0
   -9.4400   -0.2920    1.1040 C   0  0  1  0  0  0  0  0  0  0  0  0
  -10.2430   -0.7180   -0.1270 C   0  0  0  0  0  0  0  0  0  0  0  0
   -7.9790   -0.0660    0.7050 C   0  0  0  0  0  0  0  0  0  0  0  0
   -7.2370    0.3810    1.9240 C   0  0  0  0  0  0  0  0  0  0  0  0
   -5.8360    0.6310    1.6640 N   0  0  0  0  0  0  0  0  0  0  0  0
   -4.9810   -0.4030    1.2010 C   0  0  0  0  0  0  0  0  0  0  0  0
   -5.4610   -1.5670    1.0240 O   0  0  0  0  0  0  0  0  0  0  0  0
   -3.6050   -0.1900    0.9270 N   0  0  0  0  0  0  0  0  0  0  0  0
   -2.9800    1.0800    1.0740 C   0  0  0  0  0  0  0  0  0  0  0  0
   -1.7710    1.3420    0.2700 C   0  0  0  0  0  0  0  0  0  0  0  0
   -1.4950    0.4240   -0.8830 C   0  0  1  0  0  0  0  0  0  0  0  0
    0.0340    0.1580   -0.9660 C   0  0  0  0  0  0  0  0  0  0  0  0
    0.3010   -0.4520   -2.2210 N   0  0  0  0  0  0  0  0  0  0  0  0
    1.5090   -0.4050   -2.9250 C   0  0  0  0  0  0  0  0  0  0  0  0
    1.4810   -1.0060   -4.1000 O   0  0  0  0  0  0  0  0  0  0  0  0
    2.7550    0.2060   -2.5390 C   0  0  0  0  0  0  0  0  0  0  0  0
    3.7500    0.3280   -3.5420 C   0  0  0  0  0  0  0  0  0  0  0  0
    4.9760    0.8590   -3.2560 C   0  0  0  0  0  0  0  0  0  0  0  0
    5.2750    1.2910   -1.9750 C   0  0  0  0  0  0  0  0  0  0  0  0
    4.3300    1.1850   -0.9780 C   0  0  0  0  0  0  0  0  0  0  0  0
    4.6580    1.7330    0.6710 S   0  0  0  0  0  0  0  0  0  0  0  0
    5.3990    0.4560    1.7160 C   0  0  0  0  0  0  0  0  0  0  0  0
    6.7810    0.1600    1.1490 C   0  0  0  0  0  0  0  0  0  0  0  0
    7.7960    0.3630    1.9250 C   0  0  0  0  0  0  0  0  0  0  0  0
    9.1760    0.1500    1.5970 C   0  0  0  0  0  0  0  0  0  0  0  0
   10.1500    0.4470    2.5580 C   0  0  0  0  0  0  0  0  0  0  0  0
   11.4480    0.2840    2.3520 N   0  0  0  0  0  0  0  0  0  0  0  0
   11.8910   -0.1930    1.1630 C   0  0  0  0  0  0  0  0  0  0  0  0
   13.1470   -0.3300    1.0160 O   0  0  0  0  0  0  0  0  0  0  0  0
   11.0140   -0.4950    0.2060 N   0  0  0  0  0  0  0  0  0  0  0  0
    9.6750   -0.3310    0.4060 C   0  0  0  0  0  0  0  0  0  0  0  0
    8.8710   -0.6240   -0.5120 O   0  0  0  0  0  0  0  0  0  0  0  0
    3.0930    0.6440   -1.2890 C   0  0  0  0  0  0  0  0  0  0  0  0
   -0.8010   -1.2340   -2.8280 C   0  0  0  0  0  0  0  0  0  0  0  0
   -1.6470   -1.8780   -1.7490 C   0  0  0  0  0  0  0  0  0  0  0  0
   -2.3030   -0.8240   -0.9020 C   0  0  2  0  0  0  0  0  0  0  0  0
   -3.5140   -0.5130   -1.5740 O   0  0  0  0  0  0  0  0  0  0  0  0
   -2.7390   -1.2920    0.4640 C   0  0  0  0  0  0  0  0  0  0  0  0
  2  1  1  6
  2  3  1  0
  2  4  1  0
  4  5  1  0
  5  6  1  0
  6  7  1  0
  7  8  2  0
  7  9  1  0
  9 10  1  0
  9 39  1  0
 10 11  1  0
 12 11  1  1
 12 13  1  0
 12 37  1  0
 13 14  1  0
 14 15  1  0
 14 35  1  0
 15 16  2  0
 15 17  1  0
 17 18  2  0
 17 34  1  0
 18 19  1  0
 19 20  2  0
 20 21  1  0
 21 22  1  0
 21 34  2  0
 22 23  1  0
 23 24  1  0
 24 25  2  3
 25 26  1  0
 26 27  2  0
 26 32  1  0
 27 28  1  0
 28 29  1  0
 29 30  2  0
 29 31  1  0
 31 32  1  0
 32 33  2  0
 35 36  1  0
 36 37  1  0
 37 38  1  6
 37 39  1  0
M  END
