
     RDKit          3D

 39 42  0  0  0  0  0  0  0  0999 V2000
    0.6430   -1.6770    2.3840 C   0  0  0  0  0  0  0  0  0  0  0  0
    1.2320   -0.9000    1.3120 N   0  0  0  0  0  0  0  0  0  0  0  0
    0.4490    0.0140    0.5680 C   0  0  0  0  0  0  0  0  0  0  0  0
    1.0500    0.7130   -0.3100 O   0  0  0  0  0  0  0  0  0  0  0  0
   -0.9800    0.2180    0.7290 C   0  0  1  0  0  0  0  0  0  0  0  0
   -1.4860    1.3240   -0.1010 N   0  0  0  0  0  0  0  0  0  0  0  0
   -2.1920    2.4230    0.4570 C   0  0  0  0  0  0  0  0  0  0  0  0
   -2.3690    2.4050    1.7150 O   0  0  0  0  0  0  0  0  0  0  0  0
   -2.6810    3.4930   -0.3430 N   0  0  0  0  0  0  0  0  0  0  0  0
   -3.3960    4.5800    0.3220 C   0  0  1  0  0  0  0  0  0  0  0  0
   -2.6110    5.8370    0.0470 C   0  0  0  0  0  0  0  0  0  0  0  0
   -3.4880    6.9480   -0.4380 C   0  0  0  0  0  0  0  0  0  0  0  0
   -4.0710    6.5080   -1.7860 C   0  0  0  0  0  0  0  0  0  0  0  0
   -4.9130    5.3660   -1.5050 N   0  0  0  0  0  0  0  0  0  0  0  0
   -4.7320    4.6570   -0.3010 C   0  0  0  0  0  0  0  0  0  0  0  0
   -5.7130    4.0910    0.2360 O   0  0  0  0  0  0  0  0  0  0  0  0
   -1.8200   -0.9550    0.2890 C   0  0  0  0  0  0  0  0  0  0  0  0
   -3.1850   -0.7740    0.3500 C   0  0  0  0  0  0  0  0  0  0  0  0
   -4.0480   -1.7960   -0.0510 C   0  0  0  0  0  0  0  0  0  0  0  0
   -3.5140   -2.9940   -0.5100 C   0  0  0  0  0  0  0  0  0  0  0  0
   -2.1500   -3.1740   -0.5700 C   0  0  0  0  0  0  0  0  0  0  0  0
   -1.3230   -2.1320   -0.1620 C   0  0  0  0  0  0  0  0  0  0  0  0
   -1.8950   -4.5450   -1.0970 C   0  0  0  0  0  0  0  0  0  0  0  0
   -3.2190   -5.2210   -0.7350 C   0  0  2  0  0  0  0  0  0  0  0  0
   -3.2580   -5.5430    0.7470 C   0  0  0  0  0  0  0  0  0  0  0  0
   -3.4720   -6.4240   -1.5930 C   0  0  0  0  0  0  0  0  0  0  0  0
   -4.1340   -4.1670   -0.9670 O   0  0  0  0  0  0  0  0  0  0  0  0
    2.6180   -1.0890    1.0660 C   0  0  0  0  0  0  0  0  0  0  0  0
    3.1090   -1.5280   -0.1440 C   0  0  0  0  0  0  0  0  0  0  0  0
    4.4660   -1.6890   -0.3160 C   0  0  0  0  0  0  0  0  0  0  0  0
    5.3790   -1.4300    0.6780 C   0  0  0  0  0  0  0  0  0  0  0  0
    6.8200   -1.6380    0.4000 C   0  0  0  0  0  0  0  0  0  0  0  0
    7.3160   -0.4800   -0.3190 N   0  0  0  0  0  0  0  0  0  0  0  0
    7.5970    0.7640    0.2860 C   0  0  0  0  0  0  0  0  0  0  0  0
    7.4160    0.8960    1.5130 O   0  0  0  0  0  0  0  0  0  0  0  0
    8.1040    1.8890   -0.5520 C   0  0  0  0  0  0  0  0  0  0  0  0
    8.2570    1.3960   -2.2760 S   0  0  0  0  0  0  0  0  0  0  0  0
    4.9000   -0.9910    1.8920 C   0  0  0  0  0  0  0  0  0  0  0  0
    3.5220   -0.8260    2.0700 C   0  0  0  0  0  0  0  0  0  0  0  0
  1  2  1  0
  2  3  1  0
  2 28  1  0
  3  4  2  0
  3  5  1  0
  5  6  1  6
  5 17  1  0
  6  7  1  0
  7  8  2  0
  7  9  1  0
 10  9  1  6
 10 11  1  0
 10 15  1  0
 11 12  1  0
 12 13  1  0
 13 14  1  0
 14 15  1  0
 15 16  2  0
 17 18  2  0
 17 22  1  0
 18 19  1  0
 19 20  2  0
 20 21  1  0
 20 27  1  0
 21 22  2  0
 21 23  1  0
 23 24  1  0
 24 25  1  1
 24 26  1  0
 24 27  1  0
 28 29  2  0
 28 39  1  0
 29 30  1  0
 30 31  2  0
 31 32  1  0
 31 38  1  0
 32 33  1  0
 33 34  1  0
 34 35  2  0
 34 36  1  0
 36 37  1  0
 38 39  2  0
M  END
