
     RDKit          3D

 24 27  0  0  0  0  0  0  0  0999 V2000
   -3.7590    3.3060   -0.4750 C   0  0  0  0  0  0  0  0  0  0  0  0
   -3.4690    1.9630    0.1400 C   0  0  0  0  0  0  0  0  0  0  0  0
   -2.2990    1.3020   -0.1210 C   0  0  0  0  0  0  0  0  0  0  0  0
   -1.9680    0.0620    0.4120 C   0  0  0  0  0  0  0  0  0  0  0  0
   -0.6980   -0.5940    0.1470 C   0  0  0  0  0  0  0  0  0  0  0  0
    0.4740    0.0880    0.3610 N   0  0  0  0  0  0  0  0  0  0  0  0
    1.6770   -0.4580    0.1300 C   0  0  0  0  0  0  0  0  0  0  0  0
    2.8840    0.2860    0.3640 N   0  0  0  0  0  0  0  0  0  0  0  0
    2.8730    1.6370    0.8530 C   0  0  0  0  0  0  0  0  0  0  0  0
    3.5640    2.5010   -0.1830 C   0  0  0  0  0  0  0  0  0  0  0  0
    4.3270    1.7700   -1.0640 O   0  0  0  0  0  0  0  0  0  0  0  0
    5.0690    0.7640   -0.4760 C   0  0  0  0  0  0  0  0  0  0  0  0
    4.1730   -0.3270    0.1070 C   0  0  0  0  0  0  0  0  0  0  0  0
    1.7640   -1.7160   -0.3270 N   0  0  0  0  0  0  0  0  0  0  0  0
    0.6600   -2.4780   -0.5730 C   0  0  0  0  0  0  0  0  0  0  0  0
   -0.5640   -1.8830   -0.3240 C   0  0  0  0  0  0  0  0  0  0  0  0
   -1.7020   -2.6690   -0.6030 N   0  0  0  0  0  0  0  0  0  0  0  0
   -1.5880   -3.9640   -1.0930 N   0  0  0  0  0  0  0  0  0  0  0  0
   -0.4660   -4.5320   -1.3230 C   0  0  0  0  0  0  0  0  0  0  0  0
    0.8270   -3.8560   -1.0850 C   0  0  0  0  0  0  0  0  0  0  0  0
   -2.8940   -0.5050    1.2470 C   0  0  0  0  0  0  0  0  0  0  0  0
   -4.1050    0.1340    1.5410 C   0  0  0  0  0  0  0  0  0  0  0  0
   -4.3820    1.3660    0.9830 C   0  0  0  0  0  0  0  0  0  0  0  0
   -5.5780    2.0360    1.2520 O   0  0  0  0  0  0  0  0  0  0  0  0
  1  2  1  0
  2  3  2  0
  2 23  1  0
  3  4  1  0
  4  5  1  0
  4 21  2  0
  5  6  2  0
  5 16  1  0
  6  7  1  0
  7  8  1  0
  7 14  2  0
  8  9  1  0
  8 13  1  0
  9 10  1  0
 10 11  1  0
 11 12  1  0
 12 13  1  0
 14 15  1  0
 15 16  2  0
 15 20  1  0
 16 17  1  0
 17 18  1  0
 18 19  2  0
 19 20  1  0
 21 22  1  0
 22 23  2  0
 23 24  1  0
M  END
