
     RDKit          3D

 24 27  0  0  0  0  0  0  0  0999 V2000
    4.2800    3.6910    2.1880 O   0  0  0  0  0  0  0  0  0  0  0  0
    3.8940    2.5000    2.0550 C   0  0  0  0  0  0  0  0  0  0  0  0
    4.2570    1.5560    1.0100 C   0  0  0  0  0  0  0  0  0  0  0  0
    3.5870    0.4330    1.3140 C   0  0  0  0  0  0  0  0  0  0  0  0
    3.6690   -0.7940    0.5060 C   0  0  0  0  0  0  0  0  0  0  0  0
    2.4000   -1.2150   -0.0490 N   0  0  0  0  0  0  0  0  0  0  0  0
    2.3270   -2.4230   -0.8180 C   0  0  0  0  0  0  0  0  0  0  0  0
    1.1830   -2.7650   -1.3050 C   0  0  0  0  0  0  0  0  0  0  0  0
   -0.0550   -1.9710   -1.1100 C   0  0  0  0  0  0  0  0  0  0  0  0
    0.0440   -0.7700   -0.3340 C   0  0  0  0  0  0  0  0  0  0  0  0
   -1.0260    0.1610    0.0270 C   0  0  0  0  0  0  0  0  0  0  0  0
   -0.6900    1.2180    0.8580 N   0  0  0  0  0  0  0  0  0  0  0  0
   -1.5150    2.1530    1.2860 C   0  0  0  0  0  0  0  0  0  0  0  0
   -1.1480    3.1040    2.0510 O   0  0  0  0  0  0  0  0  0  0  0  0
   -2.7870    2.0950    0.8980 N   0  0  0  0  0  0  0  0  0  0  0  0
   -3.2190    1.1230    0.1000 C   0  0  0  0  0  0  0  0  0  0  0  0
   -4.5370    1.0670   -0.3040 C   0  0  0  0  0  0  0  0  0  0  0  0
   -5.0370    0.0900   -1.1290 C   0  0  0  0  0  0  0  0  0  0  0  0
   -4.1330   -0.8510   -1.5410 C   0  0  0  0  0  0  0  0  0  0  0  0
   -2.7980   -0.8450   -1.1670 C   0  0  0  0  0  0  0  0  0  0  0  0
   -2.3260    0.1370   -0.3460 C   0  0  0  0  0  0  0  0  0  0  0  0
    1.2560   -0.4450    0.1580 C   0  0  0  0  0  0  0  0  0  0  0  0
    2.8500    0.6800    2.4930 N   0  0  0  0  0  0  0  0  0  0  0  0
    3.0000    1.8380    2.9390 N   0  0  0  0  0  0  0  0  0  0  0  0
  1  2  2  0
  2  3  1  0
  2 24  1  0
  3  4  2  0
  4  5  1  0
  4 23  1  0
  5  6  1  0
  6  7  1  0
  6 22  1  0
  7  8  2  0
  8  9  1  0
  9 10  1  0
 10 11  1  0
 10 22  2  0
 11 12  2  0
 11 21  1  0
 12 13  1  0
 13 14  2  0
 13 15  1  0
 15 16  1  0
 16 17  2  0
 16 21  1  0
 17 18  1  0
 18 19  2  0
 19 20  1  0
 20 21  2  0
 23 24  2  0
M  END
