
     RDKit          3D

 24 27  0  0  0  0  0  0  0  0999 V2000
    0.6800   -0.8880   -2.3190 O   0  0  0  0  0  0  0  0  0  0  0  0
    0.3630   -0.3070   -1.2530 C   0  0  0  0  0  0  0  0  0  0  0  0
    1.0820    0.9180   -0.8850 C   0  0  0  0  0  0  0  0  0  0  0  0
    0.6540    2.1960   -1.1680 C   0  0  0  0  0  0  0  0  0  0  0  0
    1.5630    3.0330   -0.6560 N   0  0  0  0  0  0  0  0  0  0  0  0
    2.5190    2.3540   -0.0790 N   0  0  0  0  0  0  0  0  0  0  0  0
    2.2810    1.0100   -0.1850 C   0  0  0  0  0  0  0  0  0  0  0  0
    3.1310   -0.0470    0.3130 C   0  0  0  0  0  0  0  0  0  0  0  0
    2.6040   -1.1050    0.9960 C   0  0  0  0  0  0  0  0  0  0  0  0
    3.4180   -2.1360    1.4820 C   0  0  0  0  0  0  0  0  0  0  0  0
    4.7380   -2.0760    1.2680 N   0  0  0  0  0  0  0  0  0  0  0  0
    5.2840   -1.0540    0.6020 C   0  0  0  0  0  0  0  0  0  0  0  0
    4.4910   -0.0130    0.1080 C   0  0  0  0  0  0  0  0  0  0  0  0
   -0.6690   -0.8320   -0.4330 N   0  0  0  0  0  0  0  0  0  0  0  0
   -1.2670   -2.0360   -0.9160 C   0  0  0  0  0  0  0  0  0  0  0  0
   -2.6120   -2.3450   -0.3470 C   0  0  0  0  0  0  0  0  0  0  0  0
   -3.5510   -1.3130   -0.5680 O   0  0  0  0  0  0  0  0  0  0  0  0
   -3.4520   -0.0340    0.0110 C   0  0  0  0  0  0  0  0  0  0  0  0
   -4.6200    0.6850   -0.0700 C   0  0  0  0  0  0  0  0  0  0  0  0
   -4.7050    1.9300    0.4320 N   0  0  0  0  0  0  0  0  0  0  0  0
   -3.6320    2.4980    1.0300 C   0  0  0  0  0  0  0  0  0  0  0  0
   -2.4350    1.8150    1.1350 C   0  0  0  0  0  0  0  0  0  0  0  0
   -2.3580    0.5560    0.6240 C   0  0  0  0  0  0  0  0  0  0  0  0
   -1.0250   -0.1060    0.7840 C   0  0  0  0  0  0  0  0  0  0  0  0
  1  2  2  0
  2  3  1  0
  2 14  1  0
  3  4  2  0
  3  7  1  0
  4  5  1  0
  5  6  1  0
  6  7  2  0
  7  8  1  0
  8  9  2  0
  8 13  1  0
  9 10  1  0
 10 11  2  0
 11 12  1  0
 12 13  2  0
 14 15  1  0
 14 24  1  0
 15 16  1  0
 16 17  1  0
 17 18  1  0
 18 19  2  0
 18 23  1  0
 19 20  1  0
 20 21  2  0
 21 22  1  0
 22 23  2  0
 23 24  1  0
M  END
