
     RDKit          3D

 26 29  0  0  0  0  0  0  0  0999 V2000
   -1.7980   -4.4800   -1.0200 C   0  0  0  0  0  0  0  0  0  0  0  0
   -1.5070   -3.2990   -0.0920 C   0  0  0  0  0  0  0  0  0  0  0  0
   -1.3990   -2.1480   -0.8810 O   0  0  0  0  0  0  0  0  0  0  0  0
   -1.1500   -0.8700   -0.4070 C   0  0  0  0  0  0  0  0  0  0  0  0
    0.1920   -0.5180   -0.2970 C   0  0  0  0  0  0  0  0  0  0  0  0
    0.4630    0.7610    0.1750 C   0  0  0  0  0  0  0  0  0  0  0  0
   -0.5480    1.6380    0.5180 C   0  0  0  0  0  0  0  0  0  0  0  0
   -1.8610    1.2460    0.3920 C   0  0  0  0  0  0  0  0  0  0  0  0
   -2.1820   -0.0110   -0.0710 C   0  0  0  0  0  0  0  0  0  0  0  0
   -3.5530   -0.4260   -0.2050 N   0  0  0  0  0  0  0  0  0  0  0  0
   -4.1790    0.0630   -1.1870 O   0  0  0  0  0  0  0  0  0  0  0  0
   -4.1920   -1.2790    0.6220 O   0  0  0  0  0  0  0  0  0  0  0  0
   -2.8970    2.2370    0.7750 C   0  0  1  0  0  0  0  0  0  0  0  0
   -2.8470    2.4810    2.1560 O   0  0  0  0  0  0  0  0  0  0  0  0
   -2.4740    3.5350    0.1010 C   0  0  0  0  0  0  0  0  0  0  0  0
   -1.1830    4.0110    0.7130 C   0  0  0  0  0  0  0  0  0  0  0  0
   -0.2900    2.9360    0.9970 O   0  0  0  0  0  0  0  0  0  0  0  0
    1.7870    1.1570    0.3010 O   0  0  0  0  0  0  0  0  0  0  0  0
    2.8490    0.3140   -0.0300 C   0  0  0  0  0  0  0  0  0  0  0  0
    4.1700    0.7420    0.1080 C   0  0  0  0  0  0  0  0  0  0  0  0
    5.2350   -0.0750   -0.2140 C   0  0  0  0  0  0  0  0  0  0  0  0
    6.5550    0.3630   -0.0720 O   0  0  0  0  0  0  0  0  0  0  0  0
    4.9300   -1.3410   -0.6810 C   0  0  0  0  0  0  0  0  0  0  0  0
    3.6240   -1.7630   -0.8170 C   0  0  0  0  0  0  0  0  0  0  0  0
    2.5600   -0.9540   -0.4980 C   0  0  0  0  0  0  0  0  0  0  0  0
    1.2390   -1.3600   -0.6280 O   0  0  0  0  0  0  0  0  0  0  0  0
  1  2  1  0
  2  3  1  0
  3  4  1  0
  4  5  2  0
  4  9  1  0
  5  6  1  0
  5 26  1  0
  6  7  2  0
  6 18  1  0
  7  8  1  0
  7 17  1  0
  8  9  2  0
  8 13  1  0
  9 10  1  0
 10 11  2  0
 10 12  1  0
 13 14  1  1
 13 15  1  0
 15 16  1  0
 16 17  1  0
 18 19  1  0
 19 20  2  0
 19 25  1  0
 20 21  1  0
 21 22  1  0
 21 23  2  0
 23 24  1  0
 24 25  2  0
 25 26  1  0
M  CHG  2  10   1  12  -1
M  END
