
     RDKit          3D

 26 27  0  0  0  0  0  0  0  0999 V2000
   -4.9170   -2.0760    2.2110 N   0  0  0  0  0  0  0  0  0  0  0  0
   -3.8400   -1.1910    2.0770 C   0  0  0  0  0  0  0  0  0  0  0  0
   -3.3310   -0.6610    3.0980 O   0  0  0  0  0  0  0  0  0  0  0  0
   -3.2870   -0.8800    0.7500 C   0  0  2  0  0  0  0  0  0  0  0  0
   -2.0140   -0.2960    0.9820 N   0  0  0  0  0  0  0  0  0  0  0  0
   -0.9990   -0.2480   -0.1250 C   0  0  0  0  0  0  0  0  0  0  0  0
   -1.3550   -0.6600   -1.1680 O   0  0  0  0  0  0  0  0  0  0  0  0
    0.1820    0.3090    0.4340 N   0  0  0  0  0  0  0  0  0  0  0  0
    1.1370    0.1020   -0.9930 C   0  0  0  0  0  0  0  0  0  0  0  0
    0.6210   -0.5050   -1.8740 O   0  0  0  0  0  0  0  0  0  0  0  0
    2.3800    0.6780   -0.8850 N   0  0  0  0  0  0  0  0  0  0  0  0
    2.8070    1.5010    0.1860 C   0  0  0  0  0  0  0  0  0  0  0  0
    3.8570    0.7850    1.0310 C   0  0  0  0  0  0  0  0  0  0  0  0
    4.2220   -0.4000    0.4650 O   0  0  0  0  0  0  0  0  0  0  0  0
    5.1360   -0.3100   -0.5440 C   0  0  2  0  0  0  0  0  0  0  0  0
    6.5180    0.0530   -0.0370 C   0  0  0  0  0  0  0  0  0  0  0  0
    7.4750    0.1470   -1.1190 N   0  0  0  0  0  0  0  0  0  0  0  0
    4.6840    0.5850   -1.6450 C   0  0  0  0  0  0  0  0  0  0  0  0
    3.2560    0.2670   -2.0110 C   0  0  0  0  0  0  0  0  0  0  0  0
   -4.1960    0.1710    0.0720 C   0  0  2  0  0  0  0  0  0  0  0  0
   -4.2040    1.3930    0.8550 N   0  0  0  0  0  0  0  0  0  0  0  0
   -5.5940   -0.3270    0.0590 C   0  0  0  0  0  0  0  0  0  0  0  0
   -6.2790   -0.9820   -0.8460 C   0  0  0  0  0  0  0  0  0  0  0  0
   -7.5560   -1.3110   -0.5730 O   0  0  0  0  0  0  0  0  0  0  0  0
   -8.2350   -0.4870    0.3480 C   0  0  0  0  0  0  0  0  0  0  0  0
   -6.7850   -0.1180    1.4270 S   0  0  0  0  0  0  0  0  0  0  0  0
  1  2  1  0
  2  3  2  0
  2  4  1  0
  4  5  1  1
  4 20  1  0
  5  6  1  0
  6  7  2  0
  6  8  1  0
  8  9  1  0
  9 10  2  0
  9 11  1  0
 11 12  1  0
 11 19  1  0
 12 13  1  0
 13 14  1  0
 14 15  1  0
 15 16  1  1
 15 18  1  0
 16 17  1  0
 18 19  1  0
 20 21  1  1
 20 22  1  0
 22 23  2  0
 22 26  1  0
 23 24  1  0
 24 25  1  0
 25 26  1  0
M  CHG  1  17   1
M  END
