
     RDKit          3D

 21 24  0  0  0  0  0  0  0  0999 V2000
   -3.8200   -0.7170    0.3390 C   0  0  0  0  0  0  0  0  0  0  0  0
   -2.8390   -1.1030   -0.6860 C   0  0  2  0  0  0  0  0  0  0  0  0
   -2.3630   -2.3750   -0.4260 O   0  0  0  0  0  0  0  0  0  0  0  0
   -1.5130   -2.4500    0.6480 C   0  0  0  0  0  0  0  0  0  0  0  0
   -0.3540   -1.5040    0.5270 C   0  0  1  0  0  0  0  0  0  0  0  0
    0.6250   -2.0310   -0.4240 C   0  0  0  0  0  0  0  0  0  0  0  0
    2.0090   -1.5930   -0.0300 C   0  0  0  0  0  0  0  0  0  0  0  0
    3.1140   -2.2340   -0.3530 C   0  0  0  0  0  0  0  0  0  0  0  0
    4.2470   -1.4980    0.2120 C   0  0  0  0  0  0  0  0  0  0  0  0
    3.6190   -0.3510    0.8990 C   0  0  0  0  0  0  0  0  0  0  0  0
    2.3080   -0.4130    0.7530 C   0  0  0  0  0  0  0  0  0  0  0  0
    1.3440    0.5660    1.3060 C   0  0  0  0  0  0  0  0  0  0  0  0
    0.2480    0.9190    0.3040 C   0  0  1  0  0  0  0  0  0  0  0  0
   -0.2470    2.2870    0.7660 C   0  0  0  0  0  0  0  0  0  0  0  0
    0.5070    3.3100   -0.0250 C   0  0  0  0  0  0  0  0  0  0  0  0
    1.1570    2.6100   -1.1840 C   0  0  0  0  0  0  0  0  0  0  0  0
    0.9480    1.1360   -1.0070 C   0  0  0  0  0  0  0  0  0  0  0  0
   -0.8450   -0.0940    0.2690 C   0  0  2  0  0  0  0  0  0  0  0  0
   -1.6400    0.1980    1.4090 O   0  0  0  0  0  0  0  0  0  0  0  0
   -1.7100   -0.1080   -0.9090 C   0  0  2  0  0  0  0  0  0  0  0  0
   -2.3080    1.1510   -1.3950 C   0  0  0  0  0  0  0  0  0  0  0  0
  2  1  1  1
  2  3  1  0
  2 20  1  0
  3  4  1  0
  5  4  1  6
  5  6  1  0
  5 18  1  0
  6  7  1  0
  7  8  2  0
  7 11  1  0
  8  9  1  0
  9 10  1  0
 10 11  2  0
 11 12  1  0
 13 12  1  1
 13 14  1  0
 13 17  1  0
 13 18  1  0
 14 15  1  0
 15 16  1  0
 16 17  1  0
 18 19  1  1
 18 20  1  0
 20 21  1  1
M  END
