
     RDKit          3D

 27 29  0  0  0  0  0  0  0  0999 V2000
    7.0350    1.0000   -1.6820 N   0  0  0  0  0  0  0  0  0  0  0  0
    6.0180    0.2860   -1.0080 C   0  0  0  0  0  0  0  0  0  0  0  0
    6.3740   -0.6470   -0.1100 N   0  0  0  0  0  0  0  0  0  0  0  0
    5.4770   -1.3700    0.5750 C   0  0  0  0  0  0  0  0  0  0  0  0
    4.1710   -1.1630    0.3640 N   0  0  0  0  0  0  0  0  0  0  0  0
    3.7030   -0.2440   -0.5220 C   0  0  0  0  0  0  0  0  0  0  0  0
    4.6700    0.4780   -1.2050 C   0  0  0  0  0  0  0  0  0  0  0  0
    3.9880    1.3110   -2.0100 N   0  0  0  0  0  0  0  0  0  0  0  0
    2.6570    1.1030   -1.8240 C   0  0  0  0  0  0  0  0  0  0  0  0
    2.4830    0.1330   -0.8950 N   0  0  0  0  0  0  0  0  0  0  0  0
    1.2440   -0.4190   -0.3780 C   0  0  2  0  0  0  0  0  0  0  0  0
    0.1350    0.2830   -0.8250 O   0  0  0  0  0  0  0  0  0  0  0  0
   -0.8790   -0.2200   -0.0200 C   0  0  2  0  0  0  0  0  0  0  0  0
   -2.1300    0.6230   -0.0890 C   0  0  0  0  0  0  0  0  0  0  0  0
   -3.1450    0.1410    0.7010 O   0  0  0  0  0  0  0  0  0  0  0  0
   -4.5390    1.0450    0.6500 P   0  0  2  0  0  0  0  0  0  0  0  0
   -4.2540    2.4330    1.2300 O   0  0  0  0  0  0  0  0  0  0  0  0
   -5.7200    0.2710    1.5790 O   0  0  0  0  0  0  0  0  0  0  0  0
   -5.1400    1.2800   -0.8950 O   0  0  0  0  0  0  0  0  0  0  0  0
   -6.3040    0.1800   -1.3460 P   0  0  2  0  0  0  0  0  0  0  0  0
   -7.3240    0.8950   -2.2080 O   0  0  0  0  0  0  0  0  0  0  0  0
   -7.1130   -0.3610    0.0380 O   0  0  0  0  0  0  0  0  0  0  0  0
   -5.6730   -1.1720   -2.1250 O   0  0  0  0  0  0  0  0  0  0  0  0
   -0.3180   -0.3080    1.3770 C   0  0  1  0  0  0  0  0  0  0  0  0
   -0.5610   -1.5230    1.9870 O   0  0  0  0  0  0  0  0  0  0  0  0
    1.1720   -0.2080    1.1190 C   0  0  1  0  0  0  0  0  0  0  0  0
    1.8680   -1.2480    1.7290 O   0  0  0  0  0  0  0  0  0  0  0  0
  1  2  1  0
  2  3  2  0
  2  7  1  0
  3  4  1  0
  4  5  2  0
  5  6  1  0
  6  7  2  0
  6 10  1  0
  7  8  1  0
  8  9  2  0
  9 10  1  0
 11 10  1  6
 11 12  1  0
 11 26  1  0
 12 13  1  0
 13 14  1  1
 13 24  1  0
 14 15  1  0
 15 16  1  0
 16 17  2  0
 16 18  1  1
 16 19  1  0
 19 20  1  0
 20 21  2  0
 20 22  1  1
 20 23  1  0
 24 25  1  6
 24 26  1  0
 26 27  1  1
M  END
