
     RDKit          3D

 27 28  0  0  0  0  0  0  0  0999 V2000
   -3.8190    3.0960   -1.8400 C   0  0  0  0  0  0  0  0  0  0  0  0
   -3.5010    2.0280   -0.9530 O   0  0  0  0  0  0  0  0  0  0  0  0
   -2.2210    1.4910   -1.0490 C   0  0  0  0  0  0  0  0  0  0  0  0
   -1.4060    1.9710   -1.9120 O   0  0  0  0  0  0  0  0  0  0  0  0
   -1.8400    0.3910   -0.1600 C   0  0  0  0  0  0  0  0  0  0  0  0
   -0.6330   -0.1150   -0.2640 C   0  0  0  0  0  0  0  0  0  0  0  0
   -0.1260   -1.1740    0.5350 N   0  0  0  0  0  0  0  0  0  0  0  0
    1.1410   -1.7300    0.3100 C   0  0  0  0  0  0  0  0  0  0  0  0
    2.1430   -0.9550   -0.0210 N   0  0  0  0  0  0  0  0  0  0  0  0
    3.4260   -1.4690   -0.2550 C   0  0  0  0  0  0  0  0  0  0  0  0
    3.5850   -2.6100   -0.7480 O   0  0  0  0  0  0  0  0  0  0  0  0
    4.5950   -0.6830    0.0720 C   0  0  0  0  0  0  0  0  0  0  0  0
    5.8430   -1.1920   -0.1590 C   0  0  0  0  0  0  0  0  0  0  0  0
    6.9710   -0.4390    0.1540 C   0  0  0  0  0  0  0  0  0  0  0  0
    6.8530    0.7600    0.6720 O   0  0  0  0  0  0  0  0  0  0  0  0
    5.6710    1.2810    0.9070 C   0  0  0  0  0  0  0  0  0  0  0  0
    5.5490    2.4350    1.4060 O   0  0  0  0  0  0  0  0  0  0  0  0
    4.5160    0.5750    0.6150 C   0  0  0  0  0  0  0  0  0  0  0  0
    0.2180    0.4340   -1.2470 O   0  0  0  0  0  0  0  0  0  0  0  0
    0.3210   -0.2600   -2.4740 C   0  0  0  0  0  0  0  0  0  0  0  0
   -2.8790   -0.1000    0.7410 C   0  0  0  0  0  0  0  0  0  0  0  0
   -3.4810    0.8080    1.6050 C   0  0  0  0  0  0  0  0  0  0  0  0
   -4.4900    0.4360    2.4590 C   0  0  0  0  0  0  0  0  0  0  0  0
   -4.9170   -0.8770    2.4580 C   0  0  0  0  0  0  0  0  0  0  0  0
   -4.3150   -1.7310    1.6100 N   0  0  0  0  0  0  0  0  0  0  0  0
   -3.3310   -1.3990    0.7670 C   0  0  0  0  0  0  0  0  0  0  0  0
   -2.8140   -2.2690   -0.0120 O   0  0  0  0  0  0  0  0  0  0  0  0
  1  2  1  0
  2  3  1  0
  3  4  2  0
  3  5  1  0
  5  6  2  3
  5 21  1  0
  6  7  1  0
  6 19  1  0
  7  8  1  0
  8  9  2  3
  9 10  1  0
 10 11  2  0
 10 12  1  0
 12 13  1  0
 12 18  2  0
 13 14  2  0
 14 15  1  0
 15 16  1  0
 16 17  2  0
 16 18  1  0
 19 20  1  0
 21 22  2  0
 21 26  1  0
 22 23  1  0
 23 24  2  0
 24 25  1  0
 25 26  1  0
 26 27  2  0
M  END
