
     RDKit          3D

 27 28  0  0  0  0  0  0  0  0999 V2000
   -4.3470    0.3870   -3.1010 C   0  0  0  0  0  0  0  0  0  0  0  0
   -3.7340   -0.1800   -1.8150 C   0  0  1  0  0  0  0  0  0  0  0  0
   -4.9470   -0.5440   -0.9510 C   0  0  0  0  0  0  0  0  0  0  0  0
   -5.6800    0.6790   -0.7130 N   0  0  0  0  0  0  0  0  0  0  0  0
   -6.8980    0.4330    0.0360 C   0  0  0  0  0  0  0  0  0  0  0  0
   -6.5450   -0.0110    1.4260 C   0  0  0  0  0  0  0  0  0  0  0  0
   -7.7530   -0.2350    2.1100 O   0  0  0  0  0  0  0  0  0  0  0  0
   -7.4760   -0.6280    3.3240 O   0  0  0  0  0  0  0  0  0  0  0  0
   -2.9590   -1.2770   -2.0730 O   0  0  0  0  0  0  0  0  0  0  0  0
   -1.6400   -1.1040   -1.7160 C   0  0  0  0  0  0  0  0  0  0  0  0
   -1.4630   -0.7950   -0.2710 C   0  0  0  0  0  0  0  0  0  0  0  0
   -0.0060   -0.6600    0.0350 C   0  0  0  0  0  0  0  0  0  0  0  0
    0.5880   -1.5130    0.7680 O   0  0  0  0  0  0  0  0  0  0  0  0
    0.7910    0.3750   -0.4430 O   0  0  0  0  0  0  0  0  0  0  0  0
    2.1610    0.4280   -0.1000 C   0  0  0  0  0  0  0  0  0  0  0  0
    2.6010    1.1050    0.9380 C   0  0  0  0  0  0  0  0  0  0  0  0
    3.9660    1.1180    1.2240 O   0  0  0  0  0  0  0  0  0  0  0  0
    4.8820    0.4260    0.4330 C   0  0  0  0  0  0  0  0  0  0  0  0
    6.3230    0.4300    0.7260 C   0  0  0  0  0  0  0  0  0  0  0  0
    7.1730   -0.2830   -0.0770 C   0  0  0  0  0  0  0  0  0  0  0  0
    8.5160   -0.3050    0.1620 C   0  0  0  0  0  0  0  0  0  0  0  0
    9.0350    0.3880    1.2110 C   0  0  0  0  0  0  0  0  0  0  0  0
   10.3810    0.3980    1.4920 O   0  0  0  0  0  0  0  0  0  0  0  0
    8.1760    1.1210    2.0380 C   0  0  0  0  0  0  0  0  0  0  0  0
    6.8280    1.1320    1.7850 C   0  0  0  0  0  0  0  0  0  0  0  0
    4.4370   -0.2310   -0.5760 N   0  0  0  0  0  0  0  0  0  0  0  0
    3.0890   -0.2730   -0.9000 N   0  0  0  0  0  0  0  0  0  0  0  0
  2  1  1  6
  2  3  1  0
  2  9  1  0
  3  4  1  0
  4  5  1  0
  5  6  1  0
  6  7  1  0
  7  8  1  0
  9 10  1  0
 10 11  1  0
 11 12  1  0
 12 13  2  0
 12 14  1  0
 14 15  1  0
 15 16  2  0
 15 27  1  0
 16 17  1  0
 17 18  1  0
 18 19  1  0
 18 26  2  0
 19 20  2  0
 19 25  1  0
 20 21  1  0
 21 22  2  0
 22 23  1  0
 22 24  1  0
 24 25  2  0
 26 27  1  0
M  END
