
     RDKit          3D

 27 28  0  0  0  0  0  0  0  0999 V2000
   -0.6470    1.4100   -3.4790 O   0  0  0  0  0  0  0  0  0  0  0  0
   -1.8870    1.2490   -3.4550 C   0  0  0  0  0  0  0  0  0  0  0  0
   -2.6810    1.2240   -2.2790 N   0  0  0  0  0  0  0  0  0  0  0  0
   -1.9430    1.4080   -1.0060 C   0  0  1  0  0  0  0  0  0  0  0  0
   -2.5580    2.7020   -0.4670 C   0  0  0  0  0  0  0  0  0  0  0  0
   -3.9340    2.4670   -0.3020 O   0  0  0  0  0  0  0  0  0  0  0  0
   -2.2530    0.2470   -0.1040 C   0  0  0  0  0  0  0  0  0  0  0  0
   -3.2690   -0.3880   -0.3940 O   0  0  0  0  0  0  0  0  0  0  0  0
   -1.4470   -0.0880    0.9820 N   0  0  0  0  0  0  0  0  0  0  0  0
   -0.2020    0.7510    1.0760 C   0  0  0  0  0  0  0  0  0  0  0  0
    0.8870    0.0580    0.2910 C   0  0  0  0  0  0  0  0  0  0  0  0
    0.6780   -1.0100   -0.2890 O   0  0  0  0  0  0  0  0  0  0  0  0
    2.1370    0.6930    0.2600 N   0  0  0  0  0  0  0  0  0  0  0  0
    3.2830    0.2140   -0.4130 C   0  0  0  0  0  0  0  0  0  0  0  0
    3.3930   -1.0140   -0.9760 C   0  0  0  0  0  0  0  0  0  0  0  0
    4.5400   -1.4370   -1.6430 C   0  0  0  0  0  0  0  0  0  0  0  0
    5.6210   -0.6290   -1.7640 C   0  0  0  0  0  0  0  0  0  0  0  0
    5.5400    0.6300   -1.1990 C   0  0  0  0  0  0  0  0  0  0  0  0
    6.6520    1.4590   -1.3230 O   0  0  0  0  0  0  0  0  0  0  0  0
    4.4130    1.0380   -0.5460 C   0  0  0  0  0  0  0  0  0  0  0  0
   -1.5450   -1.0600    1.9670 C   0  0  0  0  0  0  0  0  0  0  0  0
   -0.4730   -1.1060    2.7360 O   0  0  0  0  0  0  0  0  0  0  0  0
   -2.5500   -2.0260    2.3360 C   0  0  0  0  0  0  0  0  0  0  0  0
   -2.3300   -3.0570    3.2810 C   0  0  0  0  0  0  0  0  0  0  0  0
   -3.4940   -3.7510    3.4270 C   0  0  0  0  0  0  0  0  0  0  0  0
   -4.3630   -3.2020    2.6450 O   0  0  0  0  0  0  0  0  0  0  0  0
   -3.8560   -2.1710    1.9730 C   0  0  0  0  0  0  0  0  0  0  0  0
  1  2  2  0
  2  3  1  0
  3  4  1  0
  4  5  1  1
  4  7  1  0
  5  6  1  0
  7  8  2  0
  7  9  1  0
  9 10  1  0
  9 21  1  0
 10 11  1  0
 11 12  2  0
 11 13  1  0
 13 14  1  0
 14 15  2  0
 14 20  1  0
 15 16  1  0
 16 17  2  0
 17 18  1  0
 18 19  1  0
 18 20  2  0
 21 22  2  0
 21 23  1  0
 23 24  1  0
 23 27  2  0
 24 25  2  0
 25 26  1  0
 26 27  1  0
M  END
