
     RDKit          3D

 46 51  0  0  0  0  0  0  0  0999 V2000
   -3.7190    0.0350    0.9270 C   0  0  0  0  0  0  0  0  0  0  0  0
   -3.8660    1.5300    0.8510 C   0  0  2  0  0  0  0  0  0  0  0  0
   -4.7680    1.9820   -0.2600 C   0  0  0  0  0  0  0  0  0  0  0  0
   -5.9470    1.1410   -0.2600 N   0  0  0  0  0  0  0  0  0  0  0  0
   -6.0500    0.0710   -1.2630 C   0  0  0  0  0  0  0  0  0  0  0  0
   -5.2550   -0.0540   -2.2440 O   0  0  0  0  0  0  0  0  0  0  0  0
   -7.1600   -0.7730   -0.9770 C   0  0  0  0  0  0  0  0  0  0  0  0
   -7.8230   -1.8820   -1.3580 C   0  0  0  0  0  0  0  0  0  0  0  0
   -8.8260   -2.0620   -0.4580 N   0  0  0  0  0  0  0  0  0  0  0  0
   -9.7630   -3.0650   -0.4470 C   0  0  0  0  0  0  0  0  0  0  0  0
  -10.7180   -3.1240    0.5190 C   0  0  0  0  0  0  0  0  0  0  0  0
  -10.6690   -2.1090    1.4740 C   0  0  0  0  0  0  0  0  0  0  0  0
   -9.7420   -1.1060    1.4690 C   0  0  0  0  0  0  0  0  0  0  0  0
   -8.7850   -1.0910    0.4560 C   0  0  0  0  0  0  0  0  0  0  0  0
   -7.7470   -0.2410    0.1770 C   0  0  0  0  0  0  0  0  0  0  0  0
   -7.0060    0.9430    0.6130 C   0  0  0  0  0  0  0  0  0  0  0  0
   -7.3100    1.6420    1.6230 O   0  0  0  0  0  0  0  0  0  0  0  0
   -2.4490    1.9260    0.3670 N   0  0  2  0  0  0  0  0  0  0  0  0
   -2.2820    3.3070    0.4390 C   0  0  0  0  0  0  0  0  0  0  0  0
   -2.2480    4.1410   -0.7570 C   0  0  0  0  0  0  0  0  0  0  0  0
   -1.8420    3.7810   -1.8440 O   0  0  0  0  0  0  0  0  0  0  0  0
   -2.2920    1.2400   -0.8490 C   0  0  0  0  0  0  0  0  0  0  0  0
   -1.0070    0.6280   -1.1620 C   0  0  0  0  0  0  0  0  0  0  0  0
   -0.9500    0.0050   -2.2660 O   0  0  0  0  0  0  0  0  0  0  0  0
    0.1430    0.6790   -0.3570 N   0  0  0  0  0  0  0  0  0  0  0  0
    1.3690    0.0540   -0.7990 C   0  0  0  0  0  0  0  0  0  0  0  0
    1.3540   -0.9860   -1.6940 C   0  0  0  0  0  0  0  0  0  0  0  0
    2.5430   -1.5230   -2.2360 C   0  0  0  0  0  0  0  0  0  0  0  0
    3.7500   -1.0070   -1.8650 C   0  0  0  0  0  0  0  0  0  0  0  0
    3.7460    0.0470   -0.9480 C   0  0  0  0  0  0  0  0  0  0  0  0
    5.0360    0.4860   -0.3930 C   0  0  0  0  0  0  0  0  0  0  0  0
    6.0820    0.0090   -0.9130 O   0  0  0  0  0  0  0  0  0  0  0  0
    5.0530    1.3400    0.6700 O   0  0  0  0  0  0  0  0  0  0  0  0
    6.2730    1.5680    1.3540 C   0  0  0  0  0  0  0  0  0  0  0  0
    7.3770    0.9410    0.5720 C   0  0  0  0  0  0  0  0  0  0  0  0
    8.0530    1.6250   -0.3890 C   0  0  0  0  0  0  0  0  0  0  0  0
    9.2100    1.1130   -0.9080 C   0  0  0  0  0  0  0  0  0  0  0  0
    9.6640   -0.1110   -0.4340 C   0  0  0  0  0  0  0  0  0  0  0  0
   10.8220   -0.5590   -0.9790 F   0  0  0  0  0  0  0  0  0  0  0  0
    9.0290   -0.8560    0.5250 C   0  0  0  0  0  0  0  0  0  0  0  0
    9.4880   -2.1050    1.0390 C   0  0  1  0  0  0  0  0  0  0  0  0
    9.4220   -3.3500    0.1740 C   0  0  0  0  0  0  0  0  0  0  0  0
   10.7430   -2.8140    0.7580 C   0  0  0  0  0  0  0  0  0  0  0  0
    7.8550   -0.2670    1.0140 C   0  0  0  0  0  0  0  0  0  0  0  0
    7.1700   -0.9570    1.9820 F   0  0  0  0  0  0  0  0  0  0  0  0
    2.5950    0.5700   -0.4220 C   0  0  0  0  0  0  0  0  0  0  0  0
  2  1  1  6
  2  3  1  0
  2 18  1  0
  3  4  1  0
  4  5  1  0
  4 16  1  0
  5  6  2  0
  5  7  1  0
  7  8  2  0
  7 15  1  0
  8  9  1  0
  9 10  1  0
  9 14  1  0
 10 11  2  0
 11 12  1  0
 12 13  2  0
 13 14  1  0
 14 15  2  0
 15 16  1  0
 16 17  2  0
 18 19  1  6
 18 22  1  0
 19 20  1  0
 20 21  2  0
 22 23  1  0
 23 24  2  0
 23 25  1  0
 25 26  1  0
 26 27  2  0
 26 46  1  0
 27 28  1  0
 28 29  2  0
 29 30  1  0
 30 31  1  0
 30 46  2  0
 31 32  2  0
 31 33  1  0
 33 34  1  0
 34 35  1  0
 35 36  2  0
 35 44  1  0
 36 37  1  0
 37 38  2  0
 38 39  1  0
 38 40  1  0
 41 40  1  6
 40 44  2  0
 41 42  1  0
 41 43  1  0
 42 43  1  0
 44 45  1  0
M  CHG  1  18   1
M  END
