
     RDKit          3D

 46 50  0  0  0  0  0  0  0  0999 V2000
    7.1170    2.7510   -1.8590 C   0  0  0  0  0  0  0  0  0  0  0  0
    7.9820    2.1250   -2.7970 N   0  0  0  0  0  0  0  0  0  0  0  0
    8.2610    0.7540   -2.6290 C   0  0  0  0  0  0  0  0  0  0  0  0
    7.2040   -0.1990   -2.2730 C   0  0  0  0  0  0  0  0  0  0  0  0
    6.1180   -0.3760   -3.1560 N   0  0  0  0  0  0  0  0  0  0  0  0
    5.1770    0.6430   -3.2960 C   0  0  0  0  0  0  0  0  0  0  0  0
    3.9250    0.1650   -4.0320 C   0  0  0  0  0  0  0  0  0  0  0  0
    2.9270   -0.4330   -3.0840 C   0  0  0  0  0  0  0  0  0  0  0  0
    3.5620   -1.3440   -2.1940 N   0  0  0  0  0  0  0  0  0  0  0  0
    3.1090   -1.4720   -0.8280 C   0  0  0  0  0  0  0  0  0  0  0  0
    3.7880   -2.2370   -0.1000 O   0  0  0  0  0  0  0  0  0  0  0  0
    1.9670   -0.7940   -0.2940 C   0  0  0  0  0  0  0  0  0  0  0  0
    1.4690   -0.8030    0.9040 C   0  0  0  0  0  0  0  0  0  0  0  0
    0.2770    0.0130    1.0950 O   0  0  0  0  0  0  0  0  0  0  0  0
   -0.8850   -0.7920    1.0960 C   0  0  0  0  0  0  0  0  0  0  0  0
   -2.1770   -0.0610    1.2500 C   0  0  0  0  0  0  0  0  0  0  0  0
   -2.3170    0.7380    2.4660 C   0  0  0  0  0  0  0  0  0  0  0  0
   -1.1990    1.0380    3.0290 O   0  0  0  0  0  0  0  0  0  0  0  0
   -3.4790    1.2090    3.0830 N   0  0  0  0  0  0  0  0  0  0  0  0
   -3.2850    2.0230    4.3140 C   0  0  0  0  0  0  0  0  0  0  0  0
   -4.4820    1.7560    5.1950 C   0  0  0  0  0  0  0  0  0  0  0  0
   -4.8180    0.2900    5.1370 C   0  0  0  0  0  0  0  0  0  0  0  0
   -5.2760   -0.0950    3.7470 C   0  0  0  0  0  0  0  0  0  0  0  0
   -4.8530    1.0240    2.7580 C   0  0  2  0  0  0  0  0  0  0  0  0
   -5.2260    0.5950    1.4170 C   0  0  0  0  0  0  0  0  0  0  0  0
   -5.7770   -0.5760    1.1390 C   0  0  0  0  0  0  0  0  0  0  0  0
   -6.1590   -1.0270   -0.2040 C   0  0  0  0  0  0  0  0  0  0  0  0
   -6.7000   -2.2040   -0.4180 C   0  0  0  0  0  0  0  0  0  0  0  0
   -6.9170   -3.0290    0.6210 F   0  0  0  0  0  0  0  0  0  0  0  0
   -7.0600   -2.6320   -1.7740 C   0  0  0  0  0  0  0  0  0  0  0  0
   -6.7500   -1.6410   -2.7350 O   0  0  0  0  0  0  0  0  0  0  0  0
   -5.9370   -0.1860   -1.2580 O   0  0  0  0  0  0  0  0  0  0  0  0
   -5.3650    1.0590   -1.0450 C   0  0  0  0  0  0  0  0  0  0  0  0
   -5.1690    1.8640   -2.1400 C   0  0  0  0  0  0  0  0  0  0  0  0
   -4.6110    3.1120   -2.0000 C   0  0  0  0  0  0  0  0  0  0  0  0
   -4.2540    3.5400   -0.7490 C   0  0  0  0  0  0  0  0  0  0  0  0
   -4.4640    2.7000    0.3500 C   0  0  0  0  0  0  0  0  0  0  0  0
   -4.1140    3.1840    1.5370 F   0  0  0  0  0  0  0  0  0  0  0  0
   -5.0160    1.4530    0.2380 C   0  0  0  0  0  0  0  0  0  0  0  0
    1.9680   -1.5270    2.0450 C   0  0  0  0  0  0  0  0  0  0  0  0
    1.4370   -1.4840    3.3550 C   0  0  0  0  0  0  0  0  0  0  0  0
    2.1900   -2.3140    4.1550 C   0  0  0  0  0  0  0  0  0  0  0  0
    3.1520   -2.8320    3.3030 C   0  0  0  0  0  0  0  0  0  0  0  0
    2.9650   -2.3390    2.1120 O   0  0  0  0  0  0  0  0  0  0  0  0
    4.6400   -2.2530   -2.5100 C   0  0  0  0  0  0  0  0  0  0  0  0
    5.7220   -1.7230   -3.3690 C   0  0  0  0  0  0  0  0  0  0  0  0
  1  2  1  0
  2  3  1  0
  3  4  1  0
  4  5  1  0
  5  6  1  0
  5 46  1  0
  6  7  1  0
  7  8  1  0
  8  9  1  0
  9 10  1  0
  9 45  1  0
 10 11  2  0
 10 12  1  0
 12 13  2  3
 13 14  1  0
 13 40  1  0
 14 15  1  0
 15 16  1  0
 16 17  1  0
 17 18  2  0
 17 19  1  0
 19 20  1  0
 19 24  1  0
 20 21  1  0
 21 22  1  0
 22 23  1  0
 23 24  1  0
 24 25  1  6
 25 26  2  0
 25 39  1  0
 26 27  1  0
 27 28  2  3
 27 32  1  0
 28 29  1  0
 28 30  1  0
 30 31  1  0
 32 33  1  0
 33 34  2  0
 33 39  1  0
 34 35  1  0
 35 36  2  0
 36 37  1  0
 37 38  1  0
 37 39  2  0
 40 41  2  0
 40 44  1  0
 41 42  1  0
 42 43  2  0
 43 44  1  0
 45 46  1  0
M  CHG  1   2   1
M  END
