
     RDKit          3D

 44 46  0  0  0  0  0  0  0  0999 V2000
   -1.5970    3.7240   -2.2220 O   0  0  0  0  0  0  0  0  0  0  0  0
   -2.0360    2.9770   -1.2640 C   0  0  0  0  0  0  0  0  0  0  0  0
   -0.9660    2.2660   -0.5190 C   0  0  0  0  0  0  0  0  0  0  0  0
   -1.2630    1.8150    0.7220 O   0  0  0  0  0  0  0  0  0  0  0  0
   -1.7800    0.7600    1.3390 C   0  0  0  0  0  0  0  0  0  0  0  0
   -2.8220    0.9690    2.0650 O   0  0  0  0  0  0  0  0  0  0  0  0
   -1.3210   -0.6740    1.3210 C   0  0  2  0  0  0  0  0  0  0  0  0
   -1.7840   -1.1580    2.5940 O   0  0  0  0  0  0  0  0  0  0  0  0
    0.0330   -0.7480    1.4070 O   0  0  0  0  0  0  0  0  0  0  0  0
    0.6340   -1.9280    1.6650 C   0  0  0  0  0  0  0  0  0  0  0  0
    2.1710   -1.7870    1.7110 C   0  0  0  0  0  0  0  0  0  0  0  0
    2.6120   -1.3160    0.4850 O   0  0  0  0  0  0  0  0  0  0  0  0
    3.9940   -1.1540    0.4180 C   0  0  2  0  0  0  0  0  0  0  0  0
    4.2390    0.3250    0.1970 C   0  0  0  0  0  0  0  0  0  0  0  0
    5.6390    0.6470   -0.2450 C   0  0  2  0  0  0  0  0  0  0  0  0
    6.5320    0.4920    0.8260 O   0  0  0  0  0  0  0  0  0  0  0  0
    5.6510    2.0900   -0.7000 C   0  0  1  0  0  0  0  0  0  0  0  0
    5.2620    2.9390    0.3440 O   0  0  0  0  0  0  0  0  0  0  0  0
    6.9990    2.5160   -1.2600 C   0  0  0  0  0  0  0  0  0  0  0  0
    6.9240    3.8390   -1.7450 O   0  0  0  0  0  0  0  0  0  0  0  0
    6.1280   -0.2120   -1.3610 C   0  0  0  0  0  0  0  0  0  0  0  0
    5.9440   -1.6840   -1.0310 C   0  0  0  0  0  0  0  0  0  0  0  0
    4.4760   -1.9130   -0.7980 C   0  0  2  0  0  0  0  0  0  0  0  0
    3.7650   -1.3630   -1.8910 O   0  0  0  0  0  0  0  0  0  0  0  0
   -2.0390   -1.4060    0.2690 C   0  0  2  0  0  0  0  0  0  0  0  0
   -3.2710   -0.6310   -0.2240 C   0  0  0  0  0  0  0  0  0  0  0  0
   -4.2970   -0.5560    0.6620 O   0  0  0  0  0  0  0  0  0  0  0  0
   -5.4600   -0.1240    0.0760 C   0  0  1  0  0  0  0  0  0  0  0  0
   -6.5730   -0.0700    1.0660 C   0  0  0  0  0  0  0  0  0  0  0  0
   -6.3310   -0.4020    2.2520 O   0  0  0  0  0  0  0  0  0  0  0  0
   -7.8440    0.3310    0.7090 O   0  0  0  0  0  0  0  0  0  0  0  0
   -5.3470    1.2220   -0.6070 C   0  0  1  0  0  0  0  0  0  0  0  0
   -6.5040    1.4050   -1.4080 O   0  0  0  0  0  0  0  0  0  0  0  0
   -5.2820    2.3720    0.3640 C   0  0  2  0  0  0  0  0  0  0  0  0
   -6.4680    3.1370    0.2610 O   0  0  0  0  0  0  0  0  0  0  0  0
   -4.1270    3.2750    0.0740 C   0  0  0  0  0  0  0  0  0  0  0  0
   -3.3730    2.9220   -1.0490 O   0  0  0  0  0  0  0  0  0  0  0  0
   -2.6320   -2.6920    0.8680 C   0  0  0  0  0  0  0  0  0  0  0  0
   -3.4620   -3.3270   -0.1850 C   0  0  0  0  0  0  0  0  0  0  0  0
   -4.5850   -3.8100    0.0130 O   0  0  0  0  0  0  0  0  0  0  0  0
   -2.9180   -3.3670   -1.4740 O   0  0  0  0  0  0  0  0  0  0  0  0
   -1.5000   -3.1220   -1.5110 C   0  0  2  0  0  0  0  0  0  0  0  0
   -0.9150   -4.1660   -0.8530 O   0  0  0  0  0  0  0  0  0  0  0  0
   -1.2410   -1.7570   -0.9700 C   0  0  0  0  0  0  0  0  0  0  0  0
  1  2  2  0
  2  3  1  0
  2 37  1  0
  3  4  1  0
  4  5  1  0
  5  6  2  0
  5  7  1  0
  7  8  1  1
  7  9  1  0
  7 25  1  0
  9 10  1  0
 10 11  1  0
 11 12  1  0
 13 12  1  6
 13 14  1  0
 13 23  1  0
 14 15  1  0
 15 16  1  1
 15 17  1  0
 15 21  1  0
 17 18  1  1
 17 19  1  0
 19 20  1  0
 21 22  1  0
 22 23  1  0
 23 24  1  6
 25 26  1  6
 25 38  1  0
 25 44  1  0
 26 27  1  0
 27 28  1  0
 28 29  1  1
 28 32  1  0
 29 30  2  0
 29 31  1  0
 32 33  1  6
 32 34  1  0
 34 35  1  6
 34 36  1  0
 36 37  1  0
 38 39  1  0
 39 40  2  0
 39 41  1  0
 41 42  1  0
 42 43  1  1
 42 44  1  0
M  END
