
     RDKit          3D

 46 50  0  0  0  0  0  0  0  0999 V2000
   -4.9610   -3.8900   -1.0680 C   0  0  0  0  0  0  0  0  0  0  0  0
   -3.6460   -4.4730   -0.5940 C   0  0  0  0  0  0  0  0  0  0  0  0
   -2.4730   -3.7440   -1.2580 C   0  0  0  0  0  0  0  0  0  0  0  0
   -2.4700   -2.3000   -0.9140 C   0  0  0  0  0  0  0  0  0  0  0  0
   -3.2610   -1.8130    0.0130 N   0  0  0  0  0  0  0  0  0  0  0  0
   -2.9910   -0.3720    0.0800 C   0  0  0  0  0  0  0  0  0  0  0  0
   -1.4980   -0.2800   -0.3120 C   0  0  1  0  0  0  0  0  0  0  0  0
   -1.1700    0.9340   -0.9460 N   0  0  0  0  0  0  0  0  0  0  0  0
   -1.3980    2.2390   -0.4960 C   0  0  0  0  0  0  0  0  0  0  0  0
   -1.3020    3.3240   -1.3440 C   0  0  0  0  0  0  0  0  0  0  0  0
   -1.5130    4.6190   -0.9040 C   0  0  0  0  0  0  0  0  0  0  0  0
   -1.8300    4.8590    0.4110 C   0  0  0  0  0  0  0  0  0  0  0  0
   -1.9320    3.7930    1.2800 C   0  0  0  0  0  0  0  0  0  0  0  0
   -2.2770    3.9980    2.7150 C   0  0  0  0  0  0  0  0  0  0  0  0
   -1.7140    2.5090    0.8070 C   0  0  0  0  0  0  0  0  0  0  0  0
   -0.6540   -0.8670    0.6920 C   0  0  0  0  0  0  0  0  0  0  0  0
   -1.1420   -1.1040    1.9870 C   0  0  0  0  0  0  0  0  0  0  0  0
   -0.4150   -1.7020    2.9910 C   0  0  0  0  0  0  0  0  0  0  0  0
   -0.8630   -1.9430    4.2650 O   0  0  0  0  0  0  0  0  0  0  0  0
   -2.1360   -1.6270    4.7350 C   0  0  2  0  0  0  0  0  0  0  0  0
   -2.0690   -0.5340    5.6350 F   0  0  0  0  0  0  0  0  0  0  0  0
   -2.6910   -2.7130    5.4290 F   0  0  0  0  0  0  0  0  0  0  0  0
    0.8870   -2.1030    2.7120 C   0  0  0  0  0  0  0  0  0  0  0  0
    1.4010   -1.8970    1.4830 C   0  0  0  0  0  0  0  0  0  0  0  0
    2.7120   -2.2970    1.1770 O   0  0  0  0  0  0  0  0  0  0  0  0
    3.4950   -2.9190    2.1700 C   0  0  0  0  0  0  0  0  0  0  0  0
    0.6440   -1.2780    0.4640 C   0  0  0  0  0  0  0  0  0  0  0  0
    1.2650   -1.0620   -0.8130 C   0  0  0  0  0  0  0  0  0  0  0  0
    1.0820   -1.9460   -1.6860 O   0  0  0  0  0  0  0  0  0  0  0  0
    2.0440    0.0560   -1.1170 N   0  0  0  0  0  0  0  0  0  0  0  0
    2.6640    0.8780   -0.1420 C   0  0  0  0  0  0  0  0  0  0  0  0
    1.8350    1.9950    0.3600 C   0  0  0  0  0  0  0  0  0  0  0  0
    2.5840    2.8480    1.3820 C   0  0  0  0  0  0  0  0  0  0  0  0
    3.0160    2.0820    2.5530 C   0  0  0  0  0  0  0  0  0  0  0  0
    2.1900    2.2070    3.8160 C   0  0  0  0  0  0  0  0  0  0  0  0
    3.9790    1.3430    2.6280 O   0  0  0  0  0  0  0  0  0  0  0  0
    2.3250    0.2760   -2.4940 C   0  0  0  0  0  0  0  0  0  0  0  0
    1.8860    1.3760   -3.1520 C   0  0  0  0  0  0  0  0  0  0  0  0
    2.1720    1.5600   -4.5080 C   0  0  0  0  0  0  0  0  0  0  0  0
    2.9130    0.5770   -5.1360 C   0  0  0  0  0  0  0  0  0  0  0  0
    3.3730   -0.5610   -4.4780 C   0  0  0  0  0  0  0  0  0  0  0  0
    3.0590   -0.6750   -3.1530 C   0  0  0  0  0  0  0  0  0  0  0  0
    4.0700   -1.3110   -5.4170 O   0  0  0  0  0  0  0  0  0  0  0  0
    3.9320   -0.7100   -6.7000 C   0  0  0  0  0  0  0  0  0  0  0  0
    3.3140    0.5440   -6.4690 O   0  0  0  0  0  0  0  0  0  0  0  0
   -1.6700   -1.2670   -1.4570 N   0  0  0  0  0  0  0  0  0  0  0  0
  1  2  1  0
  2  3  1  0
  3  4  1  0
  4  5  2  0
  4 46  1  0
  5  6  1  0
  6  7  1  0
  7  8  1  6
  7 16  1  0
  7 46  1  0
  8  9  1  0
  9 10  2  0
  9 15  1  0
 10 11  1  0
 11 12  2  0
 12 13  1  0
 13 14  1  0
 13 15  2  0
 16 17  2  0
 16 27  1  0
 17 18  1  0
 18 19  1  0
 18 23  2  0
 19 20  1  0
 20 21  1  1
 20 22  1  0
 23 24  1  0
 24 25  1  0
 24 27  2  0
 25 26  1  0
 27 28  1  0
 28 29  2  0
 28 30  1  0
 30 31  1  0
 30 37  1  0
 31 32  1  0
 32 33  1  0
 33 34  1  0
 34 35  1  0
 34 36  2  0
 37 38  2  0
 37 42  1  0
 38 39  1  0
 39 40  2  0
 40 41  1  0
 40 45  1  0
 41 42  2  0
 41 43  1  0
 43 44  1  0
 44 45  1  0
M  CHG  1   5   1
M  END
