
     RDKit          3D

 46 50  0  0  0  0  0  0  0  0999 V2000
   -7.9370    1.3300    3.6240 O   0  0  0  0  0  0  0  0  0  0  0  0
   -7.9120    1.0370    2.3920 C   0  0  0  0  0  0  0  0  0  0  0  0
   -8.9080    0.0880    1.8250 C   0  0  0  0  0  0  0  0  0  0  0  0
   -8.8350   -0.1810    0.5430 C   0  0  0  0  0  0  0  0  0  0  0  0
   -9.7770   -1.0960   -0.0670 C   0  0  0  0  0  0  0  0  0  0  0  0
   -9.6470   -1.3510   -1.4350 C   0  0  0  0  0  0  0  0  0  0  0  0
  -10.5320   -2.2200   -2.0610 C   0  0  0  0  0  0  0  0  0  0  0  0
  -11.5490   -2.8530   -1.3800 C   0  0  0  0  0  0  0  0  0  0  0  0
  -11.6710   -2.5970   -0.0300 C   0  0  0  0  0  0  0  0  0  0  0  0
  -12.6580   -3.2050    0.6570 F   0  0  0  0  0  0  0  0  0  0  0  0
  -10.7820   -1.7200    0.6100 C   0  0  0  0  0  0  0  0  0  0  0  0
   -6.9530    1.6080    1.5840 O   0  0  0  0  0  0  0  0  0  0  0  0
   -5.9890    2.5190    2.0830 C   0  0  0  0  0  0  0  0  0  0  0  0
   -5.0910    1.9250    3.1320 C   0  0  0  0  0  0  0  0  0  0  0  0
   -4.3300    0.8430    2.7650 O   0  0  0  0  0  0  0  0  0  0  0  0
   -3.3250    0.8050    1.8570 C   0  0  0  0  0  0  0  0  0  0  0  0
   -2.8280    1.8530    1.1290 C   0  0  0  0  0  0  0  0  0  0  0  0
   -1.8070    1.7690    0.2100 C   0  0  0  0  0  0  0  0  0  0  0  0
   -1.2030    0.5600   -0.0320 C   0  0  0  0  0  0  0  0  0  0  0  0
   -0.0990    0.4100   -1.0100 C   0  0  1  0  0  0  0  0  0  0  0  0
   -0.4530   -0.4840   -1.9730 O   0  0  0  0  0  0  0  0  0  0  0  0
    0.0800    1.7560   -1.6960 C   0  0  0  0  0  0  0  0  0  0  0  0
    1.1530    1.6960   -2.7300 C   0  0  0  0  0  0  0  0  0  0  0  0
    2.1600    0.6580   -2.4080 C   0  0  0  0  0  0  0  0  0  0  0  0
    2.3180    0.5440   -0.9650 N   0  0  0  0  0  0  0  0  0  0  0  0
    3.5040    0.9140   -0.3420 C   0  0  0  0  0  0  0  0  0  0  0  0
    4.4040    1.4310   -1.1120 O   0  0  0  0  0  0  0  0  0  0  0  0
    3.8520    0.7850    1.0880 C   0  0  2  0  0  0  0  0  0  0  0  0
    5.2850    0.3400    1.1630 C   0  0  0  0  0  0  0  0  0  0  0  0
    5.4340   -1.0870    1.2670 N   0  0  0  0  0  0  0  0  0  0  0  0
    6.7340   -1.6310    1.2380 C   0  0  0  0  0  0  0  0  0  0  0  0
    7.5850   -1.2720    0.2670 C   0  0  0  0  0  0  0  0  0  0  0  0
    8.9140   -1.7990    0.1980 C   0  0  0  0  0  0  0  0  0  0  0  0
    9.8450   -1.5570   -0.6570 C   0  0  0  0  0  0  0  0  0  0  0  0
    9.9500   -0.7270   -1.8140 C   0  0  0  0  0  0  0  0  0  0  0  0
    9.0760    0.1250   -2.4120 C   0  0  0  0  0  0  0  0  0  0  0  0
    9.6510    0.7030   -3.5260 N   0  0  0  0  0  0  0  0  0  0  0  0
   10.8500    0.2190   -3.6120 N   0  0  0  0  0  0  0  0  0  0  0  0
   11.1040   -0.6480   -2.6180 C   0  0  0  0  0  0  0  0  0  0  0  0
    4.2170   -1.8900    1.4020 C   0  0  0  0  0  0  0  0  0  0  0  0
    3.3520   -1.0870    2.3860 C   0  0  0  0  0  0  0  0  0  0  0  0
    2.9360    0.0430    1.7420 O   0  0  0  0  0  0  0  0  0  0  0  0
    1.1720    0.0680   -0.2420 C   0  0  0  0  0  0  0  0  0  0  0  0
   -1.6690   -0.5470    0.6870 C   0  0  0  0  0  0  0  0  0  0  0  0
   -1.0560   -1.7470    0.4360 F   0  0  0  0  0  0  0  0  0  0  0  0
   -2.6850   -0.4290    1.5910 C   0  0  0  0  0  0  0  0  0  0  0  0
  1  2  2  0
  2  3  1  0
  2 12  1  0
  3  4  2  3
  4  5  1  0
  5  6  2  0
  5 11  1  0
  6  7  1  0
  7  8  2  0
  8  9  1  0
  9 10  1  0
  9 11  2  0
 12 13  1  0
 13 14  1  0
 14 15  1  0
 15 16  1  0
 16 17  2  0
 16 46  1  0
 17 18  1  0
 18 19  2  0
 19 20  1  0
 19 44  1  0
 20 21  1  6
 20 22  1  0
 20 43  1  0
 22 23  1  0
 23 24  1  0
 24 25  1  0
 25 26  1  0
 25 43  1  0
 26 27  2  0
 28 26  1  6
 28 29  1  0
 28 42  1  0
 29 30  1  0
 30 31  1  0
 30 40  1  0
 31 32  2  3
 32 33  1  0
 33 34  2  3
 34 35  1  0
 35 36  2  0
 35 39  1  0
 36 37  1  0
 37 38  1  0
 38 39  2  0
 40 41  1  0
 41 42  1  0
 44 45  1  0
 44 46  2  0
M  CHG  1  38   1
M  END
