
     RDKit          3D

 46 50  0  0  0  0  0  0  0  0999 V2000
   -8.5170    0.7790    0.9790 C   0  0  0  0  0  0  0  0  0  0  0  0
   -7.3810    0.0690    0.9740 C   0  0  0  0  0  0  0  0  0  0  0  0
   -6.1990    0.6560    1.5660 C   0  0  0  0  0  0  0  0  0  0  0  0
   -5.0260    0.0650    1.6220 C   0  0  0  0  0  0  0  0  0  0  0  0
   -3.8540    0.6690    2.2190 C   0  0  0  0  0  0  0  0  0  0  0  0
   -3.9880    1.8190    2.7090 O   0  0  0  0  0  0  0  0  0  0  0  0
   -2.6290    0.0270    2.2600 N   0  0  0  0  0  0  0  0  0  0  0  0
   -1.7430    0.0700    1.3040 C   0  0  0  0  0  0  0  0  0  0  0  0
   -0.5040   -0.6740    1.5280 C   0  0  0  0  0  0  0  0  0  0  0  0
    0.7620    0.0910    1.5600 C   0  0  0  0  0  0  0  0  0  0  0  0
    1.1460    0.8080    0.4050 N   0  0  2  0  0  0  0  0  0  0  0  0
    1.9960    0.0990   -0.5050 C   0  0  0  0  0  0  0  0  0  0  0  0
    3.3590   -0.1860    0.0920 C   0  0  0  0  0  0  0  0  0  0  0  0
    3.6280    0.1900    1.2520 O   0  0  0  0  0  0  0  0  0  0  0  0
    4.3310   -0.8760   -0.6570 N   0  0  0  0  0  0  0  0  0  0  0  0
    5.6390   -1.2090   -0.2410 C   0  0  0  0  0  0  0  0  0  0  0  0
    6.2190   -0.7290    0.8950 C   0  0  0  0  0  0  0  0  0  0  0  0
    7.5230   -1.0900    1.2910 C   0  0  0  0  0  0  0  0  0  0  0  0
    8.2080   -1.9580    0.4840 C   0  0  0  0  0  0  0  0  0  0  0  0
    7.6670   -2.4740   -0.6780 C   0  0  0  0  0  0  0  0  0  0  0  0
    8.4360   -3.4060   -1.5200 C   0  0  0  0  0  0  0  0  0  0  0  0
    7.8780   -3.8300   -2.5580 O   0  0  0  0  0  0  0  0  0  0  0  0
    9.7130   -3.7730   -1.1500 O   0  0  0  0  0  0  0  0  0  0  0  0
   10.4440   -4.6660   -1.9640 C   0  0  0  0  0  0  0  0  0  0  0  0
    6.4020   -2.0880   -1.0090 C   0  0  0  0  0  0  0  0  0  0  0  0
    1.8610    2.0250    0.8030 C   0  0  0  0  0  0  0  0  0  0  0  0
    1.0720    3.2530    0.4860 C   0  0  0  0  0  0  0  0  0  0  0  0
    1.1730    3.9650   -0.7080 C   0  0  0  0  0  0  0  0  0  0  0  0
    0.2990    5.0280   -0.6380 C   0  0  0  0  0  0  0  0  0  0  0  0
   -0.3040    4.9230    0.6040 C   0  0  0  0  0  0  0  0  0  0  0  0
   -1.3350    5.8580    1.1410 C   0  0  0  0  0  0  0  0  0  0  0  0
    0.1900    3.8740    1.2020 O   0  0  0  0  0  0  0  0  0  0  0  0
   -2.0830    0.8170    0.1720 N   0  0  0  0  0  0  0  0  0  0  0  0
   -2.2850    0.1880   -1.1510 C   0  0  0  0  0  0  0  0  0  0  0  0
   -3.4600    0.9480   -1.7370 C   0  0  0  0  0  0  0  0  0  0  0  0
   -3.6040    2.2130   -0.9080 C   0  0  0  0  0  0  0  0  0  0  0  0
   -2.3280    2.2090   -0.0900 C   0  0  0  0  0  0  0  0  0  0  0  0
   -4.9470   -1.2730    1.0410 C   0  0  0  0  0  0  0  0  0  0  0  0
   -3.9060   -2.0780    0.9650 O   0  0  0  0  0  0  0  0  0  0  0  0
   -4.2390   -3.1980    0.3700 C   0  0  0  0  0  0  0  0  0  0  0  0
   -3.4050   -4.3940    0.0610 C   0  0  0  0  0  0  0  0  0  0  0  0
   -5.5740   -3.1300    0.0340 C   0  0  0  0  0  0  0  0  0  0  0  0
   -6.0300   -1.8840    0.4690 C   0  0  0  0  0  0  0  0  0  0  0  0
   -7.3600   -1.2720    0.3770 C   0  0  1  0  0  0  0  0  0  0  0  0
   -8.2570   -2.0380    1.1500 F   0  0  0  0  0  0  0  0  0  0  0  0
   -7.8280   -1.2540   -0.9370 F   0  0  0  0  0  0  0  0  0  0  0  0
  1  2  2  0
  2  3  1  0
  2 44  1  0
  3  4  2  0
  4  5  1  0
  4 38  1  0
  5  6  2  0
  5  7  1  0
  7  8  2  3
  8  9  1  0
  8 33  1  0
  9 10  1  0
 11 10  1  1
 11 12  1  0
 11 26  1  0
 12 13  1  0
 13 14  2  0
 13 15  1  0
 15 16  1  0
 16 17  2  0
 16 25  1  0
 17 18  1  0
 18 19  2  0
 19 20  1  0
 20 21  1  0
 20 25  2  0
 21 22  2  0
 21 23  1  0
 23 24  1  0
 26 27  1  0
 27 28  2  0
 27 32  1  0
 28 29  1  0
 29 30  2  0
 30 31  1  0
 30 32  1  0
 33 34  1  0
 33 37  1  0
 34 35  1  0
 35 36  1  0
 36 37  1  0
 38 39  1  0
 38 43  2  0
 39 40  1  0
 40 41  1  0
 40 42  2  0
 42 43  1  0
 43 44  1  0
 44 45  1  1
 44 46  1  0
M  CHG  1  11   1
M  END
