
     RDKit          3D

 41 44  0  0  0  0  0  0  0  0999 V2000
    0.0460    6.1030   -1.3530 C   0  0  0  0  0  0  0  0  0  0  0  0
   -0.4790    5.0540   -2.0710 O   0  0  0  0  0  0  0  0  0  0  0  0
   -1.5080    4.4090   -1.4280 C   0  0  0  0  0  0  0  0  0  0  0  0
   -0.9930    3.6850   -0.2220 C   0  0  0  0  0  0  0  0  0  0  0  0
   -1.8750    3.2850    0.6130 O   0  0  0  0  0  0  0  0  0  0  0  0
    0.3600    3.4210    0.0370 N   0  0  0  0  0  0  0  0  0  0  0  0
    0.9650    2.7310    1.1190 C   0  0  0  0  0  0  0  0  0  0  0  0
    0.8270    1.2570    1.2540 C   0  0  2  0  0  0  0  0  0  0  0  0
    1.5680    0.8980    2.5540 C   0  0  0  0  0  0  0  0  0  0  0  0
    1.6310    0.6490    0.0880 C   0  0  0  0  0  0  0  0  0  0  0  0
    1.4650   -0.8180   -0.0100 C   0  0  1  0  0  0  0  0  0  0  0  0
    2.5640   -1.6110    0.7170 C   0  0  0  0  0  0  0  0  0  0  0  0
    3.9000   -1.3050    0.1400 C   0  0  0  0  0  0  0  0  0  0  0  0
    4.0650   -0.5230   -0.8550 O   0  0  0  0  0  0  0  0  0  0  0  0
    5.0700   -1.8510    0.6470 O   0  0  0  0  0  0  0  0  0  0  0  0
    6.3170   -1.5360    0.0720 C   0  0  0  0  0  0  0  0  0  0  0  0
    7.0490   -0.4460    0.4860 C   0  0  0  0  0  0  0  0  0  0  0  0
    8.2810   -0.1310   -0.0770 C   0  0  0  0  0  0  0  0  0  0  0  0
    8.7830   -0.9460   -1.0910 C   0  0  0  0  0  0  0  0  0  0  0  0
    8.0700   -2.0520   -1.5300 C   0  0  0  0  0  0  0  0  0  0  0  0
    8.5860   -2.8630   -2.5490 O   0  0  0  0  0  0  0  0  0  0  0  0
    6.8670   -2.3040   -0.9340 C   0  0  0  0  0  0  0  0  0  0  0  0
    0.1340   -1.3880    0.2850 C   0  0  0  0  0  0  0  0  0  0  0  0
   -0.7040   -0.7480    1.3100 C   0  0  2  0  0  0  0  0  0  0  0  0
   -0.5390    0.7720    1.2850 C   0  0  0  0  0  0  0  0  0  0  0  0
   -0.5830   -1.3340    2.6110 N   0  0  0  0  0  0  0  0  0  0  0  0
   -1.5710   -0.8520    3.5020 C   0  0  0  0  0  0  0  0  0  0  0  0
   -1.5460   -0.6290    5.0890 S   0  0  0  0  0  0  0  0  0  0  0  0
   -2.9810   -0.5090    2.4360 S   0  0  0  0  0  0  0  0  0  0  0  0
   -2.1500   -0.9320    0.9130 C   0  0  0  0  0  0  0  0  0  0  0  0
   -2.6420   -1.2860   -0.1870 N   0  0  0  0  0  0  0  0  0  0  0  0
   -4.0180   -1.4380   -0.4860 C   0  0  0  0  0  0  0  0  0  0  0  0
   -4.8950   -0.4550   -0.1160 C   0  0  0  0  0  0  0  0  0  0  0  0
   -6.2590   -0.5250   -0.3740 C   0  0  0  0  0  0  0  0  0  0  0  0
   -7.1340    0.4730    0.0030 O   0  0  0  0  0  0  0  0  0  0  0  0
   -8.5060    0.3300   -0.2950 C   0  0  0  0  0  0  0  0  0  0  0  0
   -6.7290   -1.6280   -1.0250 C   0  0  0  0  0  0  0  0  0  0  0  0
   -5.8760   -2.6340   -1.4110 C   0  0  0  0  0  0  0  0  0  0  0  0
   -4.5250   -2.5440   -1.1450 C   0  0  0  0  0  0  0  0  0  0  0  0
   -3.6010   -3.5160   -1.5010 O   0  0  0  0  0  0  0  0  0  0  0  0
   -4.0230   -4.6830   -2.1770 C   0  0  0  0  0  0  0  0  0  0  0  0
  1  2  1  0
  2  3  1  0
  3  4  1  0
  4  5  2  0
  4  6  1  0
  6  7  1  0
  7  8  1  0
  8  9  1  1
  8 10  1  0
  8 25  1  0
 10 11  1  0
 11 12  1  1
 11 23  1  0
 12 13  1  0
 13 14  2  0
 13 15  1  0
 15 16  1  0
 16 17  2  0
 16 22  1  0
 17 18  1  0
 18 19  2  0
 19 20  1  0
 20 21  1  0
 20 22  2  0
 24 23  1  6
 24 25  1  0
 24 26  1  0
 24 30  1  0
 26 27  1  0
 27 28  2  0
 27 29  1  0
 29 30  1  0
 30 31  2  3
 31 32  1  0
 32 33  2  0
 32 39  1  0
 33 34  1  0
 34 35  1  0
 34 37  2  0
 35 36  1  0
 37 38  1  0
 38 39  2  0
 39 40  1  0
 40 41  1  0
M  END
