
     RDKit          3D

 41 44  0  0  0  0  0  0  0  0999 V2000
    5.9820    0.4150   -1.9240 C   0  0  0  0  0  0  0  0  0  0  0  0
    6.1080    1.3980   -1.1760 C   0  0  0  0  0  0  0  0  0  0  0  0
    5.2570    2.4040   -0.6160 C   0  0  0  0  0  0  0  0  0  0  0  0
    3.8480    2.1830   -0.2610 C   0  0  0  0  0  0  0  0  0  0  0  0
    3.2040    3.1930    0.1460 O   0  0  0  0  0  0  0  0  0  0  0  0
    3.2390    0.9250   -0.3580 N   0  0  0  0  0  0  0  0  0  0  0  0
    1.8820    0.6680   -0.0450 C   0  0  0  0  0  0  0  0  0  0  0  0
    0.9530    1.5810    0.3470 C   0  0  0  0  0  0  0  0  0  0  0  0
   -0.3910    1.2730    0.6330 C   0  0  0  0  0  0  0  0  0  0  0  0
   -0.7900   -0.0180    0.5100 C   0  0  0  0  0  0  0  0  0  0  0  0
   -2.1530   -0.4620    0.7830 C   0  0  0  0  0  0  0  0  0  0  0  0
   -3.1840    0.5130    0.6880 N   0  0  0  0  0  0  0  0  0  0  0  0
   -3.5230    1.2490   -0.5070 C   0  0  0  0  0  0  0  0  0  0  0  0
   -4.1090    0.3260   -1.5710 C   0  0  1  0  0  0  0  0  0  0  0  0
   -4.5570    1.1620   -2.7500 C   0  0  0  0  0  0  0  0  0  0  0  0
   -3.8520    0.4590   -4.2570 S   0  0  1  0  0  0  0  0  0  0  0  0
   -4.7340    0.9110   -5.4060 O   0  0  0  0  0  0  0  0  0  0  0  0
   -2.4650    0.9140   -4.4760 O   0  0  0  0  0  0  0  0  0  0  0  0
   -3.9910   -1.2980   -4.0490 C   0  0  0  0  0  0  0  0  0  0  0  0
   -3.5010   -1.6410   -2.6760 C   0  0  0  0  0  0  0  0  0  0  0  0
   -3.1560   -0.5910   -1.8940 O   0  0  0  0  0  0  0  0  0  0  0  0
   -3.9710    0.7930    1.8640 C   0  0  0  0  0  0  0  0  0  0  0  0
   -4.4490   -0.2140    2.6560 C   0  0  0  0  0  0  0  0  0  0  0  0
   -5.1820    0.1050    3.7800 C   0  0  0  0  0  0  0  0  0  0  0  0
   -5.4460    1.4120    4.1280 C   0  0  0  0  0  0  0  0  0  0  0  0
   -6.2360    1.7690    5.3400 C   0  0  0  0  0  0  0  0  0  0  0  0
   -4.9650    2.4290    3.3310 C   0  0  0  0  0  0  0  0  0  0  0  0
   -4.2290    2.1040    2.2010 C   0  0  0  0  0  0  0  0  0  0  0  0
    0.1250   -0.9860    0.1100 C   0  0  0  0  0  0  0  0  0  0  0  0
    1.4410   -0.6550   -0.1630 C   0  0  0  0  0  0  0  0  0  0  0  0
    2.3750   -1.7340   -0.5640 C   0  0  2  0  0  0  0  0  0  0  0  0
    1.5770   -3.0140   -0.8830 C   0  0  0  0  0  0  0  0  0  0  0  0
    3.3120   -2.0880    0.4670 N   0  0  0  0  0  0  0  0  0  0  0  0
    4.6550   -2.4550    0.2690 C   0  0  0  0  0  0  0  0  0  0  0  0
    5.1090   -2.4860   -0.9050 O   0  0  0  0  0  0  0  0  0  0  0  0
    5.5480   -2.8120    1.4320 C   0  0  0  0  0  0  0  0  0  0  0  0
    6.8630   -3.3060    0.8820 C   0  0  0  0  0  0  0  0  0  0  0  0
    5.8480    3.5830   -0.4560 C   0  0  0  0  0  0  0  0  0  0  0  0
    7.1710    3.6650   -0.8390 O   0  0  0  0  0  0  0  0  0  0  0  0
    7.7320    1.9950   -0.5730 S   0  0  0  0  0  0  0  0  0  0  0  0
    8.6910    1.7420   -1.7300 O   0  0  0  0  0  0  0  0  0  0  0  0
  1  2  2  0
  2  3  1  0
  2 40  1  0
  3  4  1  0
  3 38  2  0
  4  5  2  0
  4  6  1  0
  6  7  1  0
  7  8  2  0
  7 30  1  0
  8  9  1  0
  9 10  2  0
 10 11  1  0
 10 29  1  0
 11 12  1  0
 12 13  1  0
 12 22  1  0
 14 13  1  1
 14 15  1  0
 14 21  1  0
 16 15  1  1
 16 17  2  0
 16 18  2  0
 16 19  1  0
 19 20  1  0
 20 21  1  0
 22 23  2  0
 22 28  1  0
 23 24  1  0
 24 25  2  0
 25 26  1  0
 25 27  1  0
 27 28  2  0
 29 30  2  0
 30 31  1  0
 31 32  1  1
 31 33  1  0
 33 34  1  0
 34 35  2  0
 34 36  1  0
 36 37  1  0
 38 39  1  0
 40 39  1  6
 40 41  2  0
M  END
