
     RDKit          3D

 41 45  0  0  0  0  0  0  0  0999 V2000
   -7.8240   -2.9610   -1.4310 C   0  0  0  0  0  0  0  0  0  0  0  0
   -7.1790   -2.9760   -0.0520 C   0  0  0  0  0  0  0  0  0  0  0  0
   -5.7700   -2.4930   -0.0920 C   0  0  0  0  0  0  0  0  0  0  0  0
   -5.5430   -1.2330   -0.5640 O   0  0  0  0  0  0  0  0  0  0  0  0
   -5.9130    0.0130   -0.1670 C   0  0  0  0  0  0  0  0  0  0  0  0
   -6.6720    0.2020    0.9560 C   0  0  0  0  0  0  0  0  0  0  0  0
   -7.0320    1.4980    1.3400 C   0  0  0  0  0  0  0  0  0  0  0  0
   -6.6390    2.5950    0.6120 C   0  0  0  0  0  0  0  0  0  0  0  0
   -7.0100    3.8600    1.0130 O   0  0  0  0  0  0  0  0  0  0  0  0
   -7.7890    4.1190    2.1580 C   0  0  0  0  0  0  0  0  0  0  0  0
   -5.8750    2.3880   -0.5170 C   0  0  0  0  0  0  0  0  0  0  0  0
   -5.4710    3.4670   -1.2240 F   0  0  0  0  0  0  0  0  0  0  0  0
   -5.5040    1.1280   -0.9220 C   0  0  0  0  0  0  0  0  0  0  0  0
   -4.6800    0.9570   -2.1090 C   0  0  0  0  0  0  0  0  0  0  0  0
   -5.0520    1.0580   -3.2840 O   0  0  0  0  0  0  0  0  0  0  0  0
   -3.2530    0.6370   -1.8210 C   0  0  0  0  0  0  0  0  0  0  0  0
   -2.7590    0.5970   -0.5370 C   0  0  0  0  0  0  0  0  0  0  0  0
   -1.4520    0.2850   -0.2630 C   0  0  0  0  0  0  0  0  0  0  0  0
   -0.5940    0.0020   -1.3010 C   0  0  0  0  0  0  0  0  0  0  0  0
    0.8170   -0.3330   -0.9630 C   0  0  0  0  0  0  0  0  0  0  0  0
    1.3730   -1.2860   -1.5500 O   0  0  0  0  0  0  0  0  0  0  0  0
    1.5700    0.3750    0.0020 N   0  0  0  0  0  0  0  0  0  0  0  0
    2.9210    0.0880    0.3780 C   0  0  2  0  0  0  0  0  0  0  0  0
    3.2130    0.2240    1.8260 C   0  0  0  0  0  0  0  0  0  0  0  0
    3.7530    1.5510    2.0700 N   0  0  0  0  0  0  0  0  0  0  0  0
    3.8350    2.2080    0.7730 C   0  0  0  0  0  0  0  0  0  0  0  0
    3.9380    1.0750   -0.2210 C   0  0  1  0  0  0  0  0  0  0  0  0
    5.2340    0.4440   -0.0050 N   0  0  0  0  0  0  0  0  0  0  0  0
    6.0960   -0.0190   -1.0180 C   0  0  0  0  0  0  0  0  0  0  0  0
    5.7200    0.1180   -2.2010 O   0  0  0  0  0  0  0  0  0  0  0  0
    7.3880   -0.6460   -0.6860 C   0  0  0  0  0  0  0  0  0  0  0  0
    7.9990   -1.5030   -1.5660 C   0  0  0  0  0  0  0  0  0  0  0  0
    9.2230   -2.1060   -1.2530 C   0  0  0  0  0  0  0  0  0  0  0  0
    9.8460   -1.8550   -0.0580 C   0  0  0  0  0  0  0  0  0  0  0  0
   11.0050   -2.3030    0.4800 N   0  0  0  0  0  0  0  0  0  0  0  0
   11.1420   -1.7410    1.6890 N   0  0  0  0  0  0  0  0  0  0  0  0
   10.0910   -0.9460    1.9260 C   0  0  0  0  0  0  0  0  0  0  0  0
    9.2440   -0.9900    0.8460 C   0  0  0  0  0  0  0  0  0  0  0  0
    8.0390   -0.4120    0.5080 C   0  0  0  0  0  0  0  0  0  0  0  0
   -1.0330    0.0320   -2.5880 C   0  0  0  0  0  0  0  0  0  0  0  0
   -2.3540    0.3460   -2.8320 C   0  0  0  0  0  0  0  0  0  0  0  0
  1  2  1  0
  2  3  1  0
  3  4  1  0
  4  5  1  0
  5  6  2  0
  5 13  1  0
  6  7  1  0
  7  8  2  0
  8  9  1  0
  8 11  1  0
  9 10  1  0
 11 12  1  0
 11 13  2  0
 13 14  1  0
 14 15  2  0
 14 16  1  0
 16 17  2  0
 16 41  1  0
 17 18  1  0
 18 19  2  0
 19 20  1  0
 19 40  1  0
 20 21  2  0
 20 22  1  0
 23 22  1  1
 23 24  1  0
 23 27  1  0
 24 25  1  0
 25 26  1  0
 26 27  1  0
 27 28  1  1
 28 29  1  0
 29 30  2  0
 29 31  1  0
 31 32  2  0
 31 39  1  0
 32 33  1  0
 33 34  2  0
 34 35  1  0
 34 38  1  0
 35 36  1  0
 36 37  2  0
 37 38  1  0
 38 39  2  0
 40 41  2  0
M  END
