
     RDKit          3D

 41 44  0  0  0  0  0  0  0  0999 V2000
   11.6480   -0.2180   -4.2670 C   0  0  0  0  0  0  0  0  0  0  0  0
   11.3420    0.8300   -3.3340 O   0  0  0  0  0  0  0  0  0  0  0  0
   10.7180    0.4330   -2.1540 C   0  0  0  0  0  0  0  0  0  0  0  0
   10.3970   -0.8810   -1.8730 C   0  0  0  0  0  0  0  0  0  0  0  0
    9.7800   -1.2640   -0.7030 C   0  0  0  0  0  0  0  0  0  0  0  0
    9.4570   -0.3160    0.2440 C   0  0  0  0  0  0  0  0  0  0  0  0
    8.7900   -0.7400    1.4930 C   0  0  0  0  0  0  0  0  0  0  0  0
    7.4400   -0.4450    1.5770 O   0  0  0  0  0  0  0  0  0  0  0  0
    6.5070   -0.9420    0.6850 C   0  0  0  0  0  0  0  0  0  0  0  0
    6.9100   -1.6920   -0.2290 O   0  0  0  0  0  0  0  0  0  0  0  0
    5.1010   -0.5660    0.8580 C   0  0  0  0  0  0  0  0  0  0  0  0
    4.1230   -1.0410    0.0170 C   0  0  0  0  0  0  0  0  0  0  0  0
    2.8070   -0.6790    0.1710 C   0  0  0  0  0  0  0  0  0  0  0  0
    2.3710    0.1900    1.1830 C   0  0  0  0  0  0  0  0  0  0  0  0
    1.1470    0.5510    1.3540 O   0  0  0  0  0  0  0  0  0  0  0  0
   -0.0960    0.8720    1.4710 C   0  0  0  0  0  0  0  0  0  0  0  0
   -1.0480   -0.2900    1.7250 C   0  0  1  0  0  0  0  0  0  0  0  0
   -0.4820   -1.0500    3.2990 S   0  0  0  0  0  0  0  0  0  0  0  0
   -1.9930   -1.2310    4.2860 C   0  0  0  0  0  0  0  0  0  0  0  0
   -2.6340    0.1070    4.4320 C   0  0  0  0  0  0  0  0  0  0  0  0
   -2.5980    0.9870    3.2390 C   0  0  0  0  0  0  0  0  0  0  0  0
   -2.4500    0.1520    1.9720 C   0  0  1  0  0  0  0  0  0  0  0  0
   -3.1180    0.7580    0.8590 N   0  0  0  0  0  0  0  0  0  0  0  0
   -4.4470    0.3840    0.5280 C   0  0  0  0  0  0  0  0  0  0  0  0
   -5.0170   -0.4800    1.2380 O   0  0  0  0  0  0  0  0  0  0  0  0
   -5.1710    0.9250   -0.5510 N   0  0  0  0  0  0  0  0  0  0  0  0
   -6.5690    0.4910   -0.7840 C   0  0  1  0  0  0  0  0  0  0  0  0
   -7.4270    1.7360   -0.9770 C   0  0  0  0  0  0  0  0  0  0  0  0
   -7.2910    1.9370   -2.4610 C   0  0  0  0  0  0  0  0  0  0  0  0
   -7.0130    0.7450   -3.0660 O   0  0  0  0  0  0  0  0  0  0  0  0
   -6.7150   -0.1960   -2.0810 C   0  0  2  0  0  0  0  0  0  0  0  0
   -7.7260   -1.3000   -2.0790 C   0  0  0  0  0  0  0  0  0  0  0  0
   -9.0850   -0.9210   -1.8580 N   0  0  0  0  0  0  0  0  0  0  0  0
   -9.8430   -0.4760   -3.0540 C   0  0  0  0  0  0  0  0  0  0  0  0
   -9.8090   -0.9250   -0.6530 C   0  0  0  0  0  0  0  0  0  0  0  0
  -11.0120   -0.4810   -0.6290 O   0  0  0  0  0  0  0  0  0  0  0  0
   -9.1950   -1.5200    0.9130 S   0  0  0  0  0  0  0  0  0  0  0  0
    3.4030    0.6540    2.0220 C   0  0  0  0  0  0  0  0  0  0  0  0
    4.7130    0.2910    1.8660 C   0  0  0  0  0  0  0  0  0  0  0  0
    9.7590    0.9940   -0.0010 C   0  0  0  0  0  0  0  0  0  0  0  0
   10.3740    1.3490   -1.1720 C   0  0  0  0  0  0  0  0  0  0  0  0
  1  2  1  0
  2  3  1  0
  3  4  2  0
  3 41  1  0
  4  5  1  0
  5  6  2  0
  6  7  1  0
  6 40  1  0
  7  8  1  0
  8  9  1  0
  9 10  2  0
  9 11  1  0
 11 12  2  0
 11 39  1  0
 12 13  1  0
 13 14  2  0
 14 15  1  0
 14 38  1  0
 15 16  1  0
 17 16  1  1
 17 18  1  0
 17 22  1  0
 18 19  1  0
 19 20  1  0
 20 21  1  0
 21 22  1  0
 22 23  1  6
 23 24  1  0
 24 25  2  0
 24 26  1  0
 27 26  1  6
 27 28  1  0
 27 31  1  0
 28 29  1  0
 29 30  1  0
 30 31  1  0
 31 32  1  1
 32 33  1  0
 33 34  1  0
 33 35  1  0
 35 36  2  0
 35 37  1  0
 38 39  2  0
 40 41  2  0
M  END
