
     RDKit          3D

 41 44  0  0  0  0  0  0  0  0999 V2000
    7.9260    3.3990    1.2800 C   0  0  0  0  0  0  0  0  0  0  0  0
    7.8940    2.0230    1.0210 O   0  0  0  0  0  0  0  0  0  0  0  0
    6.9680    1.4540    0.1910 C   0  0  0  0  0  0  0  0  0  0  0  0
    6.9090    0.1200   -0.0830 C   0  0  0  0  0  0  0  0  0  0  0  0
    5.9770   -0.4080   -0.9100 C   0  0  0  0  0  0  0  0  0  0  0  0
    5.0090    0.3860   -1.5390 C   0  0  0  0  0  0  0  0  0  0  0  0
    5.0680    1.7150   -1.2650 C   0  0  0  0  0  0  0  0  0  0  0  0
    6.0010    2.2550   -0.4360 C   0  0  0  0  0  0  0  0  0  0  0  0
    3.7270    2.4650   -2.1680 S   0  0  0  0  0  0  0  0  0  0  0  0
    2.8000    0.8930   -2.4450 C   0  0  2  0  0  0  0  0  0  0  0  0
    1.9290    0.6640   -1.2510 C   0  0  0  0  0  0  0  0  0  0  0  0
    0.7040    0.6010   -1.4680 O   0  0  0  0  0  0  0  0  0  0  0  0
    2.4430    0.5330   -0.0210 O   0  0  0  0  0  0  0  0  0  0  0  0
    1.7980    0.3080    1.1700 C   0  0  0  0  0  0  0  0  0  0  0  0
    1.1290   -1.0260    1.2330 C   0  0  2  0  0  0  0  0  0  0  0  0
    2.2040   -2.0990    1.0000 C   0  0  0  0  0  0  0  0  0  0  0  0
    1.5460   -3.4130    1.0600 C   0  0  0  0  0  0  0  0  0  0  0  0
    0.3130   -3.4750    1.2720 O   0  0  0  0  0  0  0  0  0  0  0  0
    2.3020   -4.5880    0.8810 N   0  0  0  0  0  0  0  0  0  0  0  0
    1.6290   -5.8700    0.9440 C   0  0  0  0  0  0  0  0  0  0  0  0
    3.6900   -4.5050    0.6460 C   0  0  0  0  0  0  0  0  0  0  0  0
    4.4720   -5.7620    0.4590 C   0  0  0  0  0  0  0  0  0  0  0  0
    4.3270   -3.4410    0.5810 O   0  0  0  0  0  0  0  0  0  0  0  0
    0.0470   -1.2560    0.3320 N   0  0  0  0  0  0  0  0  0  0  0  0
   -1.2650   -0.6810    0.5100 C   0  0  0  0  0  0  0  0  0  0  0  0
   -1.6080    0.0090    1.6510 C   0  0  0  0  0  0  0  0  0  0  0  0
   -2.8640    0.5590    1.7970 C   0  0  0  0  0  0  0  0  0  0  0  0
   -3.8420    0.4520    0.8220 C   0  0  0  0  0  0  0  0  0  0  0  0
   -5.1690    1.0470    1.0160 C   0  0  0  0  0  0  0  0  0  0  0  0
   -5.5020    1.5130    2.1460 O   0  0  0  0  0  0  0  0  0  0  0  0
   -6.1540    1.1530    0.0040 N   0  0  0  0  0  0  0  0  0  0  0  0
   -7.4400    1.7330    0.2040 C   0  0  2  0  0  0  0  0  0  0  0  0
   -8.5610    0.7950   -0.0740 C   0  0  0  0  0  0  0  0  0  0  0  0
   -9.9830    1.9510    0.0870 S   0  0  0  0  0  0  0  0  0  0  0  0
   -9.0540    3.4090   -0.4940 C   0  0  0  0  0  0  0  0  0  0  0  0
   -7.6340    2.9730   -0.6090 C   0  0  1  0  0  0  0  0  0  0  0  0
   -6.7970    4.1280   -0.1250 C   0  0  0  0  0  0  0  0  0  0  0  0
   -5.4500    3.8980   -0.1470 O   0  0  0  0  0  0  0  0  0  0  0  0
   -3.4980   -0.2380   -0.3160 C   0  0  0  0  0  0  0  0  0  0  0  0
   -2.2280   -0.7950   -0.4680 C   0  0  0  0  0  0  0  0  0  0  0  0
    3.9730   -0.0560   -2.4550 C   0  0  0  0  0  0  0  0  0  0  0  0
  1  2  1  0
  2  3  1  0
  3  4  2  0
  3  8  1  0
  4  5  1  0
  5  6  2  0
  6  7  1  0
  6 41  1  0
  7  8  2  0
  7  9  1  0
  9 10  1  0
 10 11  1  1
 10 41  1  0
 11 12  2  0
 11 13  1  0
 13 14  1  0
 15 14  1  6
 15 16  1  0
 15 24  1  0
 16 17  1  0
 17 18  2  0
 17 19  1  0
 19 20  1  0
 19 21  1  0
 21 22  1  0
 21 23  2  0
 24 25  1  0
 25 26  2  0
 25 40  1  0
 26 27  1  0
 27 28  2  0
 28 29  1  0
 28 39  1  0
 29 30  2  0
 29 31  1  0
 32 31  1  6
 32 33  1  0
 32 36  1  0
 33 34  1  0
 34 35  1  0
 35 36  1  0
 36 37  1  1
 37 38  1  0
 39 40  2  0
M  END
