
     RDKit          3D

 20 22  0  0  0  0  0  0  0  0999 V2000
   -5.8170   -0.9970   -1.7870 O   0  0  0  0  0  0  0  0  0  0  0  0
   -4.5880   -0.8950   -1.5590 C   0  0  0  0  0  0  0  0  0  0  0  0
   -3.8700    0.2540   -2.1400 C   0  0  0  0  0  0  0  0  0  0  0  0
   -3.0060    0.8860   -1.2110 O   0  0  0  0  0  0  0  0  0  0  0  0
   -1.9470    0.3710   -0.4480 C   0  0  0  0  0  0  0  0  0  0  0  0
   -0.9520    1.2740   -0.2060 C   0  0  0  0  0  0  0  0  0  0  0  0
    0.1900    0.9810    0.5260 C   0  0  0  0  0  0  0  0  0  0  0  0
    0.2950   -0.2990    1.0220 C   0  0  0  0  0  0  0  0  0  0  0  0
    1.4290   -0.6890    1.7820 N   0  0  0  0  0  0  0  0  0  0  0  0
    2.5120    0.2350    2.0000 C   0  0  0  0  0  0  0  0  0  0  0  0
    3.1420    0.6130    0.7000 C   0  0  0  0  0  0  0  0  0  0  0  0
    4.1200    1.5770    0.5270 C   0  0  0  0  0  0  0  0  0  0  0  0
    4.4470    1.6280   -0.8260 C   0  0  0  0  0  0  0  0  0  0  0  0
    3.6640    0.6960   -1.4430 C   0  0  0  0  0  0  0  0  0  0  0  0
    2.8930    0.1020   -0.5170 N   0  0  0  0  0  0  0  0  0  0  0  0
   -0.7080   -1.2420    0.7900 C   0  0  0  0  0  0  0  0  0  0  0  0
   -1.8320   -0.8910    0.0470 C   0  0  0  0  0  0  0  0  0  0  0  0
   -2.7790   -1.9920   -0.0970 C   0  0  0  0  0  0  0  0  0  0  0  0
   -2.4030   -3.0690    0.4090 O   0  0  0  0  0  0  0  0  0  0  0  0
   -4.0450   -1.9490   -0.7390 N   0  0  0  0  0  0  0  0  0  0  0  0
  1  2  2  0
  2  3  1  0
  2 20  1  0
  3  4  1  0
  4  5  1  0
  5  6  2  0
  5 17  1  0
  6  7  1  0
  7  8  2  0
  8  9  1  0
  8 16  1  0
  9 10  1  0
 10 11  1  0
 11 12  2  0
 11 15  1  0
 12 13  1  0
 13 14  2  0
 14 15  1  0
 16 17  2  0
 17 18  1  0
 18 19  2  0
 18 20  1  0
M  END
