
     RDKit          3D

 21 23  0  0  0  0  0  0  0  0999 V2000
    0.4630    3.1830   -0.6730 O   0  0  0  0  0  0  0  0  0  0  0  0
   -0.1450    2.0780   -0.4700 C   0  0  0  0  0  0  0  0  0  0  0  0
   -1.4480    1.8990   -0.2790 N   0  0  0  0  0  0  0  0  0  0  0  0
   -1.7530    0.6120   -0.0970 N   0  0  0  0  0  0  0  0  0  0  0  0
   -3.0670    0.1300    0.1270 C   0  0  0  0  0  0  0  0  0  0  0  0
   -4.0850    1.0320    0.4450 C   0  0  0  0  0  0  0  0  0  0  0  0
   -5.3700    0.6220    0.6610 C   0  0  0  0  0  0  0  0  0  0  0  0
   -5.6410   -0.7020    0.5580 N   0  0  0  0  0  0  0  0  0  0  0  0
   -4.7120   -1.5940    0.2580 C   0  0  0  0  0  0  0  0  0  0  0  0
   -3.4190   -1.1840    0.0400 C   0  0  0  0  0  0  0  0  0  0  0  0
   -0.6150   -0.0580   -0.1730 C   0  0  0  0  0  0  0  0  0  0  0  0
   -0.4190   -1.4250   -0.0530 O   0  0  0  0  0  0  0  0  0  0  0  0
    0.4300    0.8120   -0.4060 C   0  0  0  0  0  0  0  0  0  0  0  0
    1.8500    0.5610   -0.5760 C   0  0  0  0  0  0  0  0  0  0  0  0
    2.4850   -0.1990    0.2830 C   0  0  0  0  0  0  0  0  0  0  0  0
    1.7820   -0.7450    1.3340 F   0  0  0  0  0  0  0  0  0  0  0  0
    3.9150   -0.5010    0.1810 C   0  0  0  0  0  0  0  0  0  0  0  0
    4.8290   -0.1510   -0.7910 C   0  0  0  0  0  0  0  0  0  0  0  0
    6.0720   -0.6460   -0.4300 C   0  0  0  0  0  0  0  0  0  0  0  0
    5.8960   -1.2620    0.7080 O   0  0  0  0  0  0  0  0  0  0  0  0
    4.6480   -1.2040    1.1040 C   0  0  0  0  0  0  0  0  0  0  0  0
  1  2  2  0
  2  3  1  0
  2 13  1  0
  3  4  1  0
  4  5  1  0
  4 11  1  0
  5  6  2  0
  5 10  1  0
  6  7  1  0
  7  8  2  0
  8  9  1  0
  9 10  2  0
 11 12  1  0
 11 13  2  0
 13 14  1  0
 14 15  2  3
 15 16  1  0
 15 17  1  0
 17 18  1  0
 17 21  2  0
 18 19  2  0
 19 20  1  0
 20 21  1  0
M  END
