
     RDKit          3D

 21 23  0  0  0  0  0  0  0  0999 V2000
   -0.3740   -1.9930   -0.2590 O   0  0  0  0  0  0  0  0  0  0  0  0
   -0.0730   -0.7840   -0.1360 C   0  0  0  0  0  0  0  0  0  0  0  0
    1.2950   -0.4110   -0.1040 N   0  0  0  0  0  0  0  0  0  0  0  0
    2.3340   -1.4150   -0.2120 C   0  0  0  0  0  0  0  0  0  0  0  0
    3.6890   -0.8080   -0.1560 C   0  0  0  0  0  0  0  0  0  0  0  0
    4.3460   -0.6370    1.0460 C   0  0  0  0  0  0  0  0  0  0  0  0
    5.6050   -0.0770    1.1310 C   0  0  0  0  0  0  0  0  0  0  0  0
    6.2440    0.3320   -0.0160 C   0  0  0  0  0  0  0  0  0  0  0  0
    7.4790    0.8900   -0.0180 F   0  0  0  0  0  0  0  0  0  0  0  0
    5.5710    0.1540   -1.2280 C   0  0  0  0  0  0  0  0  0  0  0  0
    4.3420   -0.3970   -1.2630 N   0  0  0  0  0  0  0  0  0  0  0  0
   -1.1220    0.1580   -0.0350 N   0  0  0  0  0  0  0  0  0  0  0  0
   -2.5060   -0.2400   -0.0690 C   0  0  0  0  0  0  0  0  0  0  0  0
   -3.5150    0.6080    0.0230 C   0  0  0  0  0  0  0  0  0  0  0  0
   -3.9000    2.0270    0.1700 C   0  0  0  0  0  0  0  0  0  0  0  0
   -2.9930    3.0540    0.2710 O   0  0  0  0  0  0  0  0  0  0  0  0
   -5.2310    2.0950    0.1830 C   0  0  0  0  0  0  0  0  0  0  0  0
   -5.7950    0.7570    0.0480 C   0  0  0  0  0  0  0  0  0  0  0  0
   -4.7810   -0.1080   -0.0450 C   0  0  0  0  0  0  0  0  0  0  0  0
   -4.4250   -1.5320   -0.1930 C   0  0  0  0  0  0  0  0  0  0  0  0
   -3.0160   -1.4970   -0.1960 O   0  0  0  0  0  0  0  0  0  0  0  0
  1  2  2  0
  2  3  1  0
  2 12  1  0
  3  4  1  0
  4  5  1  0
  5  6  2  0
  5 11  1  0
  6  7  1  0
  7  8  2  0
  8  9  1  0
  8 10  1  0
 10 11  2  0
 12 13  1  0
 13 14  2  0
 13 21  1  0
 14 15  1  0
 14 19  1  0
 15 16  1  0
 15 17  2  0
 17 18  1  0
 18 19  2  0
 19 20  1  0
 20 21  1  0
M  END
