
     RDKit          3D

 21 22  0  0  0  0  0  0  0  0999 V2000
    5.5650   -0.8530    0.3270 C   0  0  0  0  0  0  0  0  0  0  0  0
    5.0960    0.1770   -0.6240 C   0  0  0  0  0  0  0  0  0  0  0  0
    5.9070    0.8170   -1.3210 O   0  0  0  0  0  0  0  0  0  0  0  0
    3.6490    0.4790   -0.7760 C   0  0  0  0  0  0  0  0  0  0  0  0
    2.8070   -0.1710   -0.0670 C   0  0  0  0  0  0  0  0  0  0  0  0
    1.3770   -0.1700    0.0700 C   0  0  0  0  0  0  0  0  0  0  0  0
    0.8240   -1.0430    0.9800 N   0  0  0  0  0  0  0  0  0  0  0  0
   -0.5080   -1.1240    1.1870 C   0  0  0  0  0  0  0  0  0  0  0  0
   -0.9190   -1.9720    2.0590 O   0  0  0  0  0  0  0  0  0  0  0  0
   -1.3280   -0.3120    0.4670 C   0  0  0  0  0  0  0  0  0  0  0  0
   -2.7730   -0.3180    0.6110 C   0  0  0  0  0  0  0  0  0  0  0  0
   -3.3900   -1.1010    1.4410 C   0  0  0  0  0  0  0  0  0  0  0  0
   -4.8850   -1.0730    1.5550 C   0  0  0  0  0  0  0  0  0  0  0  0
   -5.4880   -0.1560    0.7130 O   0  0  0  0  0  0  0  0  0  0  0  0
   -4.8370    0.6710   -0.1630 C   0  0  0  0  0  0  0  0  0  0  0  0
   -5.5130    1.5490   -0.9620 F   0  0  0  0  0  0  0  0  0  0  0  0
   -3.5400    0.6290   -0.2460 C   0  0  0  0  0  0  0  0  0  0  0  0
   -2.8480    1.4810   -1.1490 N   0  0  0  0  0  0  0  0  0  0  0  0
   -0.7900    0.5370   -0.4190 N   0  0  0  0  0  0  0  0  0  0  0  0
    0.5550    0.6460   -0.6530 C   0  0  0  0  0  0  0  0  0  0  0  0
    1.0560    1.6020   -1.6440 C   0  0  0  0  0  0  0  0  0  0  0  0
  1  2  1  0
  2  3  2  0
  2  4  1  0
  4  5  2  3
  5  6  1  0
  6  7  1  0
  6 20  2  0
  7  8  1  0
  8  9  2  0
  8 10  1  0
 10 11  1  0
 10 19  2  0
 11 12  2  0
 11 17  1  0
 12 13  1  0
 13 14  1  0
 14 15  1  0
 15 16  1  0
 15 17  2  0
 17 18  1  0
 19 20  1  0
 20 21  1  0
M  END
