
     RDKit          3D

 21 23  0  0  0  0  0  0  0  0999 V2000
    2.5890   -1.9630   -0.6310 O   0  0  0  0  0  0  0  0  0  0  0  0
    2.3580   -0.8040   -0.2620 C   0  0  0  0  0  0  0  0  0  0  0  0
    1.0370   -0.3390   -0.1180 N   0  0  0  0  0  0  0  0  0  0  0  0
   -0.1440   -1.0790   -0.3570 C   0  0  0  0  0  0  0  0  0  0  0  0
   -0.2140   -2.3800   -0.7710 C   0  0  0  0  0  0  0  0  0  0  0  0
   -1.4360   -3.0230   -0.9800 C   0  0  0  0  0  0  0  0  0  0  0  0
   -1.4870   -4.3120   -1.3900 F   0  0  0  0  0  0  0  0  0  0  0  0
   -2.6060   -2.3400   -0.7650 C   0  0  0  0  0  0  0  0  0  0  0  0
   -2.5790   -1.0330   -0.3490 C   0  0  0  0  0  0  0  0  0  0  0  0
   -1.3640   -0.4160   -0.1490 C   0  0  0  0  0  0  0  0  0  0  0  0
   -1.1710    0.9030    0.2720 O   0  0  0  0  0  0  0  0  0  0  0  0
   -2.0930    1.9750    0.1050 C   0  0  0  0  0  0  0  0  0  0  0  0
   -3.3070    1.8200    0.9880 C   0  0  0  0  0  0  0  0  0  0  0  0
   -4.2040    0.8020    0.4360 N   0  0  0  0  0  0  0  0  0  0  0  0
   -3.9070   -0.4490   -0.1660 C   0  0  0  0  0  0  0  0  0  0  0  0
   -4.8490   -1.1590   -0.6010 O   0  0  0  0  0  0  0  0  0  0  0  0
    3.5050    0.0800    0.0220 C   0  0  0  0  0  0  0  0  0  0  0  0
    4.8450   -0.2340   -0.0740 C   0  0  0  0  0  0  0  0  0  0  0  0
    5.5900    0.8860    0.2850 C   0  0  0  0  0  0  0  0  0  0  0  0
    4.7110    1.8560    0.5920 N   0  0  0  0  0  0  0  0  0  0  0  0
    3.4370    1.3920    0.4400 C   0  0  0  0  0  0  0  0  0  0  0  0
  1  2  2  0
  2  3  1  0
  2 17  1  0
  3  4  1  0
  4  5  2  0
  4 10  1  0
  5  6  1  0
  6  7  1  0
  6  8  2  0
  8  9  1  0
  9 10  2  0
  9 15  1  0
 10 11  1  0
 11 12  1  0
 12 13  1  0
 13 14  1  0
 14 15  1  0
 15 16  2  0
 17 18  1  0
 17 21  2  0
 18 19  2  0
 19 20  1  0
 20 21  1  0
M  END
