
     RDKit          3D

 21 23  0  0  0  0  0  0  0  0999 V2000
   -3.3850    1.9290   -0.6180 C   0  0  0  0  0  0  0  0  0  0  0  0
   -3.8130    0.5330   -0.4820 N   0  0  0  0  0  0  0  0  0  0  0  0
   -5.0880    0.1490   -0.5920 N   0  0  0  0  0  0  0  0  0  0  0  0
   -5.1290   -1.1690   -0.4190 C   0  0  0  0  0  0  0  0  0  0  0  0
   -6.1700   -1.9260   -0.4480 O   0  0  0  0  0  0  0  0  0  0  0  0
   -3.8780   -1.5830   -0.2040 N   0  0  0  0  0  0  0  0  0  0  0  0
   -3.0260   -0.5170   -0.2400 C   0  0  0  0  0  0  0  0  0  0  0  0
   -1.5940   -0.6310   -0.0450 C   0  0  0  0  0  0  0  0  0  0  0  0
   -0.6850    0.3750   -0.0570 C   0  0  0  0  0  0  0  0  0  0  0  0
    0.6880    0.1630    0.1410 C   0  0  0  0  0  0  0  0  0  0  0  0
    1.1620   -1.1000    0.3590 C   0  0  0  0  0  0  0  0  0  0  0  0
    2.5130   -1.3420    0.5580 O   0  0  0  0  0  0  0  0  0  0  0  0
    3.4180   -0.2650    0.5360 C   0  0  0  0  0  0  0  0  0  0  0  0
    3.4730    0.7340    1.3990 C   0  0  0  0  0  0  0  0  0  0  0  0
    4.5600    1.6490    1.0250 C   0  0  0  0  0  0  0  0  0  0  0  0
    5.1360    1.0370   -0.1900 C   0  0  0  0  0  0  0  0  0  0  0  0
    4.4560   -0.0650   -0.4440 C   0  0  0  0  0  0  0  0  0  0  0  0
    4.7540   -0.8600   -1.5160 F   0  0  0  0  0  0  0  0  0  0  0  0
    0.2660   -2.1260    0.3750 C   0  0  0  0  0  0  0  0  0  0  0  0
    0.7450   -3.4110    0.5960 O   0  0  0  0  0  0  0  0  0  0  0  0
   -1.0770   -1.9090    0.1800 C   0  0  0  0  0  0  0  0  0  0  0  0
  1  2  1  0
  2  3  1  0
  2  7  1  0
  3  4  1  0
  4  5  2  0
  4  6  1  0
  6  7  2  0
  7  8  1  0
  8  9  2  0
  8 21  1  0
  9 10  1  0
 10 11  2  0
 11 12  1  0
 11 19  1  0
 12 13  1  0
 13 14  2  0
 13 17  1  0
 14 15  1  0
 15 16  1  0
 16 17  2  0
 17 18  1  0
 19 20  1  0
 19 21  2  0
M  END
