
     RDKit          3D

 21 21  0  0  0  0  0  0  0  0999 V2000
   -3.5020   -2.3800   -0.5490 N   0  0  0  0  0  0  0  0  0  0  0  0
   -2.2250   -1.6930   -0.6390 C   0  0  0  0  0  0  0  0  0  0  0  0
   -1.5360   -2.0280   -1.6060 O   0  0  0  0  0  0  0  0  0  0  0  0
   -1.9590   -0.7280    0.4130 C   0  0  1  0  0  0  0  0  0  0  0  0
   -0.6720    0.0170    0.3790 C   0  0  1  0  0  0  0  0  0  0  0  0
    0.3280   -0.4700   -0.6060 C   0  0  0  0  0  0  0  0  0  0  0  0
    1.5210    0.1960   -0.6240 O   0  0  0  0  0  0  0  0  0  0  0  0
    2.2450    0.1930    0.5350 C   0  0  2  0  0  0  0  0  0  0  0  0
    2.5840    1.6380    0.8710 C   0  0  0  0  0  0  0  0  0  0  0  0
    3.3360    2.1130   -0.2290 O   0  0  0  0  0  0  0  0  0  0  0  0
    3.6990    3.3480   -0.0820 O   0  0  0  0  0  0  0  0  0  0  0  0
    3.5760   -0.4930    0.2420 C   0  0  2  0  0  0  0  0  0  0  0  0
    4.3010    0.1480   -0.7320 O   0  0  0  0  0  0  0  0  0  0  0  0
    3.3440   -1.9630   -0.0560 C   0  0  0  0  0  0  0  0  0  0  0  0
    4.6140   -2.5530   -0.1520 O   0  0  0  0  0  0  0  0  0  0  0  0
   -1.0490    1.3460    0.1490 O   0  0  0  0  0  0  0  0  0  0  0  0
   -2.1220    1.4960    1.0240 C   0  0  0  0  0  0  0  0  0  0  0  0
   -3.0270    0.3790    0.4680 C   0  0  2  0  0  0  0  0  0  0  0  0
   -4.0660    0.0800    1.3070 O   0  0  0  0  0  0  0  0  0  0  0  0
   -3.4440    0.8200   -0.9000 C   0  0  0  0  0  0  0  0  0  0  0  0
   -4.2320    1.9790   -0.7530 O   0  0  0  0  0  0  0  0  0  0  0  0
  1  2  1  0
  2  3  2  0
  4  2  1  6
  4  5  1  0
  4 18  1  0
  5  6  1  6
  5 16  1  0
  6  7  1  0
  7  8  1  0
  8  9  1  6
  8 12  1  0
  9 10  1  0
 10 11  1  0
 12 13  1  6
 12 14  1  0
 14 15  1  0
 16 17  1  0
 17 18  1  0
 18 19  1  1
 18 20  1  0
 20 21  1  0
M  END
