
     RDKit          3D

 20 19  0  0  0  0  0  0  0  0999 V2000
    5.4910    1.4280   -1.7670 O   0  0  0  0  0  0  0  0  0  0  0  0
    4.5920    0.5170   -1.1620 C   0  0  0  0  0  0  0  0  0  0  0  0
    5.1230    0.3620    0.2650 C   0  0  2  0  0  0  0  0  0  0  0  0
    6.4570   -0.1310    0.0230 O   0  0  0  0  0  0  0  0  0  0  0  0
    4.4030   -0.7020    1.0120 C   0  0  0  0  0  0  0  0  0  0  0  0
    3.2060   -0.4600    1.5350 O   0  0  0  0  0  0  0  0  0  0  0  0
    2.1980   -0.0310    0.7620 C   0  0  0  0  0  0  0  0  0  0  0  0
    0.9150    0.0090    1.6090 C   0  0  0  0  0  0  0  0  0  0  0  0
   -0.1260    0.4400    0.8500 O   0  0  0  0  0  0  0  0  0  0  0  0
   -0.4190   -0.4250   -0.1850 C   0  0  2  0  0  0  0  0  0  0  0  0
   -0.1710    0.2280   -1.3970 O   0  0  0  0  0  0  0  0  0  0  0  0
   -1.8560   -0.8900   -0.0990 C   0  0  1  0  0  0  0  0  0  0  0  0
   -2.0820   -1.5280    1.0940 O   0  0  0  0  0  0  0  0  0  0  0  0
   -2.8620    0.1750   -0.4520 C   0  0  2  0  0  0  0  0  0  0  0  0
   -2.7920    1.3620    0.4220 C   0  0  0  0  0  0  0  0  0  0  0  0
   -3.0030    1.1400    1.7580 O   0  0  0  0  0  0  0  0  0  0  0  0
   -4.2160   -0.4530   -0.5790 C   0  0  2  0  0  0  0  0  0  0  0  0
   -4.1430   -1.4170   -1.5940 O   0  0  0  0  0  0  0  0  0  0  0  0
   -5.3090    0.4950   -0.9350 C   0  0  0  0  0  0  0  0  0  0  0  0
   -6.5000   -0.2660   -1.0200 O   0  0  0  0  0  0  0  0  0  0  0  0
  1  2  1  0
  2  3  1  0
  3  4  1  6
  3  5  1  0
  5  6  1  0
  6  7  1  0
  7  8  1  0
  8  9  1  0
  9 10  1  0
 10 11  1  6
 10 12  1  0
 12 13  1  1
 12 14  1  0
 14 15  1  1
 14 17  1  0
 15 16  1  0
 17 18  1  6
 17 19  1  0
 19 20  1  0
M  END
