
     RDKit          3D

 21 20  0  0  0  0  0  0  0  0999 V2000
    2.9000    1.1760   -2.0420 O   0  0  0  0  0  0  0  0  0  0  0  0
    3.8150    1.0760   -1.1680 C   0  0  0  0  0  0  0  0  0  0  0  0
    4.9300    2.0340   -1.1380 C   0  0  0  0  0  0  0  0  0  0  0  0
    5.7890    1.7060   -0.0920 O   0  0  0  0  0  0  0  0  0  0  0  0
    3.7390    0.0210   -0.2230 N   0  0  0  0  0  0  0  0  0  0  0  0
    2.6530   -0.9440   -0.2230 C   0  0  1  0  0  0  0  0  0  0  0  0
    3.0570   -2.2440   -0.3820 O   0  0  0  0  0  0  0  0  0  0  0  0
    1.9820   -0.7920    1.1430 C   0  0  1  0  0  0  0  0  0  0  0  0
    2.9390   -1.0570    2.1460 O   0  0  0  0  0  0  0  0  0  0  0  0
    1.5960    0.6570    1.2470 C   0  0  0  0  0  0  0  0  0  0  0  0
    0.6110    0.9450    0.3220 O   0  0  0  0  0  0  0  0  0  0  0  0
   -0.5430    0.2570    0.6610 C   0  0  1  0  0  0  0  0  0  0  0  0
   -1.4920    1.2990    0.8960 O   0  0  0  0  0  0  0  0  0  0  0  0
   -1.0200   -0.5830   -0.5130 C   0  0  2  0  0  0  0  0  0  0  0  0
   -1.2860    0.2150   -1.6250 O   0  0  0  0  0  0  0  0  0  0  0  0
   -2.2140   -1.4250   -0.1300 C   0  0  0  0  0  0  0  0  0  0  0  0
   -3.4090   -0.6840    0.3280 C   0  0  2  0  0  0  0  0  0  0  0  0
   -4.3870   -1.6650    0.6280 O   0  0  0  0  0  0  0  0  0  0  0  0
   -4.0350    0.2330   -0.6680 C   0  0  0  0  0  0  0  0  0  0  0  0
   -5.2400    0.9170   -0.0640 C   0  0  0  0  0  0  0  0  0  0  0  0
   -5.7610    1.7550   -1.0690 O   0  0  0  0  0  0  0  0  0  0  0  0
  1  2  2  0
  2  3  1  0
  2  5  1  0
  3  4  1  0
  5  6  1  0
  6  7  1  1
  6  8  1  0
  8  9  1  1
  8 10  1  0
 10 11  1  0
 11 12  1  0
 12 13  1  6
 12 14  1  0
 14 15  1  6
 14 16  1  0
 16 17  1  0
 17 18  1  6
 17 19  1  0
 19 20  1  0
 20 21  1  0
M  END
