
     RDKit          3D

 20 19  0  0  0  0  0  0  0  0999 V2000
   -2.5780    3.4340    0.4160 C   0  0  0  0  0  0  0  0  0  0  0  0
   -2.4750    2.0450    0.4610 O   0  0  0  0  0  0  0  0  0  0  0  0
   -1.1300    1.6490    0.5890 C   0  0  0  0  0  0  0  0  0  0  0  0
   -1.1930    0.1030    0.6250 C   0  0  2  0  0  0  0  0  0  0  0  0
   -2.0380   -0.2350    1.8140 C   0  0  0  0  0  0  0  0  0  0  0  0
    0.2020   -0.3300    0.9030 C   0  0  2  0  0  0  0  0  0  0  0  0
    0.5360    0.2590    2.1560 O   0  0  0  0  0  0  0  0  0  0  0  0
    1.2460    0.1270   -0.0470 C   0  0  0  0  0  0  0  0  0  0  0  0
    2.4840   -0.3390    0.4570 O   0  0  0  0  0  0  0  0  0  0  0  0
    3.5270    0.0530   -0.3860 C   0  0  2  0  0  0  0  0  0  0  0  0
    4.2170   -1.0250   -0.8930 O   0  0  0  0  0  0  0  0  0  0  0  0
    4.4790    0.9330    0.3360 C   0  0  0  0  0  0  0  0  0  0  0  0
    5.8610    0.6010    0.4180 N   0  0  0  0  0  0  0  0  0  0  0  0
    4.1020    1.9940    0.8980 O   0  0  0  0  0  0  0  0  0  0  0  0
   -1.8020   -0.2980   -0.6600 C   0  0  1  0  0  0  0  0  0  0  0  0
   -1.1180    0.0810   -1.7960 O   0  0  0  0  0  0  0  0  0  0  0  0
   -2.2570   -1.7000   -0.8410 C   0  0  1  0  0  0  0  0  0  0  0  0
   -3.1130   -1.6350   -1.9840 O   0  0  0  0  0  0  0  0  0  0  0  0
   -1.1830   -2.6760   -1.2700 C   0  0  0  0  0  0  0  0  0  0  0  0
   -1.8860   -3.8750   -1.5590 O   0  0  0  0  0  0  0  0  0  0  0  0
  1  2  1  0
  2  3  1  0
  3  4  1  0
  4  5  1  1
  4  6  1  0
  4 15  1  0
  6  7  1  1
  6  8  1  0
  8  9  1  0
  9 10  1  0
 10 11  1  1
 10 12  1  0
 12 13  1  0
 12 14  2  0
 15 16  1  6
 15 17  1  0
 17 18  1  6
 17 19  1  0
 19 20  1  0
M  END
