
     RDKit          3D

 21 20  0  0  0  0  0  0  0  0999 V2000
    5.0870    1.0810   -0.2730 C   0  0  0  0  0  0  0  0  0  0  0  0
    3.5920    0.7810    0.1510 C   0  0  2  0  0  0  0  0  0  0  0  0
    2.8680    1.1540   -0.9680 O   0  0  0  0  0  0  0  0  0  0  0  0
    1.5350    1.2150   -0.9150 C   0  0  0  0  0  0  0  0  0  0  0  0
    0.6890    0.0360   -0.6400 C   0  0  0  0  0  0  0  0  0  0  0  0
   -0.6590    0.5450   -0.6580 O   0  0  0  0  0  0  0  0  0  0  0  0
   -1.4490   -0.5810   -0.4160 C   0  0  0  0  0  0  0  0  0  0  0  0
   -2.9010   -0.2110   -0.4050 C   0  0  1  0  0  0  0  0  0  0  0  0
   -3.7960   -1.4050   -0.2720 C   0  0  0  0  0  0  0  0  0  0  0  0
   -3.6660   -2.3770   -1.3750 C   0  0  0  0  0  0  0  0  0  0  0  0
   -2.9210   -2.1210   -2.5490 N   0  0  0  0  0  0  0  0  0  0  0  0
   -4.2550   -3.4940   -1.2590 O   0  0  0  0  0  0  0  0  0  0  0  0
   -3.1540    0.7520    0.6230 N   0  0  0  0  0  0  0  0  0  0  0  0
   -3.4590    0.1800    1.9000 C   0  0  0  0  0  0  0  0  0  0  0  0
   -3.4120    1.2070    2.8440 O   0  0  0  0  0  0  0  0  0  0  0  0
    3.3530    1.5960    1.3140 C   0  0  0  0  0  0  0  0  0  0  0  0
    3.3370    1.2280    2.5010 N   0  0  0  0  0  0  0  0  0  0  0  0
    3.1080    2.9740    1.0950 O   0  0  0  0  0  0  0  0  0  0  0  0
    3.5890   -0.6830    0.3150 C   0  0  0  0  0  0  0  0  0  0  0  0
    3.0740   -1.5270   -0.6900 N   0  0  0  0  0  0  0  0  0  0  0  0
    4.0380   -1.2840    1.3320 O   0  0  0  0  0  0  0  0  0  0  0  0
  2  1  1  6
  2  3  1  0
  2 16  1  0
  2 19  1  0
  3  4  1  0
  4  5  1  0
  5  6  1  0
  6  7  1  0
  8  7  1  1
  8  9  1  0
  8 13  1  0
  9 10  1  0
 10 11  1  0
 10 12  2  0
 13 14  1  0
 14 15  1  0
 16 17  2  0
 16 18  1  0
 19 20  1  0
 19 21  2  0
M  CHG  1  13   1
M  END
