
     RDKit          3D

 35 39  0  0  0  0  0  0  0  0999 V2000
    2.2890    1.7360    1.0420 O   0  0  0  0  0  0  0  0  0  0  0  0
    2.4350    0.6660    1.6650 C   0  0  0  0  0  0  0  0  0  0  0  0
    3.6700    0.4860    2.5170 C   0  0  0  0  0  0  0  0  0  0  0  0
    4.7310   -0.0600    1.6820 N   0  0  0  0  0  0  0  0  0  0  0  0
    5.6210    0.6820    0.9890 C   0  0  0  0  0  0  0  0  0  0  0  0
    6.4700   -0.1890    0.3150 C   0  0  0  0  0  0  0  0  0  0  0  0
    6.0210   -1.4730    0.6560 C   0  0  0  0  0  0  0  0  0  0  0  0
    4.9750   -1.3350    1.4810 N   0  0  0  0  0  0  0  0  0  0  0  0
    6.9080   -2.4370   -0.0670 C   0  0  0  0  0  0  0  0  0  0  0  0
    7.3710   -1.6220   -1.2740 C   0  0  0  0  0  0  0  0  0  0  0  0
    7.5970   -0.3000   -0.5740 C   0  0  0  0  0  0  0  0  0  0  0  0
    8.6150    0.4660   -0.7690 C   0  0  0  0  0  0  0  0  0  0  0  0
    8.9400    1.7220   -0.1140 C   0  0  0  0  0  0  0  0  0  0  0  0
    8.1710    2.2570    0.8640 F   0  0  0  0  0  0  0  0  0  0  0  0
   10.0500    2.3780   -0.4660 C   0  0  0  0  0  0  0  0  0  0  0  0
   10.3390    3.5320    0.1430 F   0  0  0  0  0  0  0  0  0  0  0  0
   10.8380    1.8560   -1.4210 F   0  0  0  0  0  0  0  0  0  0  0  0
    1.4960   -0.3630    1.5990 N   0  0  0  0  0  0  0  0  0  0  0  0
    0.2930   -0.3550    0.8430 C   0  0  0  0  0  0  0  0  0  0  0  0
    0.0030    0.5700   -0.1160 C   0  0  0  0  0  0  0  0  0  0  0  0
   -1.2170    0.5240   -0.8160 C   0  0  0  0  0  0  0  0  0  0  0  0
   -2.1440   -0.4600   -0.5420 C   0  0  0  0  0  0  0  0  0  0  0  0
   -1.8750   -1.4060    0.4230 C   0  0  0  0  0  0  0  0  0  0  0  0
   -0.6790   -1.3340    1.0850 C   0  0  0  0  0  0  0  0  0  0  0  0
   -3.0700   -2.2850    0.4530 C   0  0  0  0  0  0  0  0  0  0  0  0
   -3.6390   -2.0880   -0.8610 N   0  0  0  0  0  0  0  0  0  0  0  0
   -3.4510   -0.7280   -1.1080 N   0  0  0  0  0  0  0  0  0  0  0  0
   -4.3100    0.2280   -1.7670 C   0  0  0  0  0  0  0  0  0  0  0  0
   -5.5690    0.4190   -1.1340 N   0  0  0  0  0  0  0  0  0  0  0  0
   -6.3620    1.4590   -1.7910 C   0  0  0  0  0  0  0  0  0  0  0  0
   -6.8440    2.3430   -0.6300 C   0  0  0  0  0  0  0  0  0  0  0  0
   -7.7990    1.4900    0.1760 C   0  0  0  0  0  0  0  0  0  0  0  0
   -7.0250    0.5880    1.1130 C   0  0  0  0  0  0  0  0  0  0  0  0
   -6.8610   -0.8040    0.5350 C   0  0  0  0  0  0  0  0  0  0  0  0
   -6.3530   -0.7490   -0.8900 C   0  0  0  0  0  0  0  0  0  0  0  0
  1  2  2  0
  2  3  1  0
  2 18  1  0
  3  4  1  0
  4  5  1  0
  4  8  1  0
  5  6  2  0
  6  7  1  0
  6 11  1  0
  7  8  2  0
  7  9  1  0
  9 10  1  0
 10 11  1  0
 11 12  2  3
 12 13  1  0
 13 14  1  0
 13 15  2  3
 15 16  1  0
 15 17  1  0
 18 19  1  0
 19 20  2  0
 19 24  1  0
 20 21  1  0
 21 22  2  0
 22 23  1  0
 22 27  1  0
 23 24  2  0
 23 25  1  0
 25 26  1  0
 26 27  1  0
 27 28  1  0
 28 29  1  0
 29 30  1  0
 29 35  1  0
 30 31  1  0
 31 32  1  0
 32 33  1  0
 33 34  1  0
 34 35  1  0
M  END
