
     RDKit          3D

 35 38  0  0  0  0  0  0  0  0999 V2000
   -4.3990   -4.2300   -4.0370 O   0  0  0  0  0  0  0  0  0  0  0  0
   -4.4150   -3.2680   -3.2920 C   0  0  0  0  0  0  0  0  0  0  0  0
   -3.3170   -3.0660   -2.3130 C   0  0  0  0  0  0  0  0  0  0  0  0
   -3.5670   -1.8930   -1.5760 O   0  0  0  0  0  0  0  0  0  0  0  0
   -2.7230   -1.4290   -0.5790 C   0  0  0  0  0  0  0  0  0  0  0  0
   -1.5560   -2.1370   -0.2640 C   0  0  0  0  0  0  0  0  0  0  0  0
   -0.7190   -1.6980    0.7070 C   0  0  0  0  0  0  0  0  0  0  0  0
   -1.0550   -0.5060    1.3940 C   0  0  0  0  0  0  0  0  0  0  0  0
   -2.1830    0.1820    1.0920 C   0  0  0  0  0  0  0  0  0  0  0  0
   -3.0490   -0.2710    0.0880 C   0  0  0  0  0  0  0  0  0  0  0  0
   -4.2190    0.4430   -0.2240 O   0  0  0  0  0  0  0  0  0  0  0  0
   -4.5070    1.6320    0.4970 C   0  0  0  0  0  0  0  0  0  0  0  0
   -5.0750    1.5400    1.6700 C   0  0  0  0  0  0  0  0  0  0  0  0
   -5.4660    2.6120    2.5940 C   0  0  1  0  0  0  0  0  0  0  0  0
   -4.5960    2.4160    4.1330 Cl  0  0  0  0  0  0  0  0  0  0  0  0
   -5.0830    4.2570    1.9660 S   0  0  0  0  0  0  0  0  0  0  0  0
   -4.3240    4.0710    0.3680 C   0  0  0  0  0  0  0  0  0  0  0  0
   -4.1330    2.8800   -0.1510 C   0  0  0  0  0  0  0  0  0  0  0  0
   -0.0780   -0.0880    2.4450 C   0  0  0  0  0  0  0  0  0  0  0  0
    1.3070   -0.0720    1.7610 C   0  0  0  0  0  0  0  0  0  0  0  0
    1.5890   -1.2330    0.9990 N   0  0  0  0  0  0  0  0  0  0  0  0
    2.6600   -1.5250    0.1580 C   0  0  0  0  0  0  0  0  0  0  0  0
    2.5540   -2.7420   -0.4400 O   0  0  0  0  0  0  0  0  0  0  0  0
    3.8420   -0.8480   -0.2230 C   0  0  0  0  0  0  0  0  0  0  0  0
    4.3190    0.2970    0.1210 C   0  0  0  0  0  0  0  0  0  0  0  0
    3.6560    1.0870    1.0100 F   0  0  0  0  0  0  0  0  0  0  0  0
    5.5780    0.8320   -0.4740 C   0  0  0  0  0  0  0  0  0  0  0  0
    6.0250    2.0030    0.1780 C   0  0  0  0  0  0  0  0  0  0  0  0
    7.4360    2.7040   -0.4560 S   0  0  0  0  0  0  0  0  0  0  0  0
    8.0640    1.8500   -1.7860 C   0  0  0  0  0  0  0  0  0  0  0  0
    9.4110    2.3120   -2.5770 S   0  0  0  0  0  0  0  0  0  0  0  0
    7.3630    0.7750   -2.1260 N   0  0  0  0  0  0  0  0  0  0  0  0
    6.2380    0.3210   -1.5270 C   0  0  0  0  0  0  0  0  0  0  0  0
    5.7930   -0.7450   -2.0960 O   0  0  0  0  0  0  0  0  0  0  0  0
    0.5410   -2.3290    1.1600 C   0  0  0  0  0  0  0  0  0  0  0  0
  1  2  2  0
  2  3  1  0
  3  4  1  0
  4  5  1  0
  5  6  2  0
  5 10  1  0
  6  7  1  0
  7  8  2  0
  7 35  1  0
  8  9  1  0
  8 19  1  0
  9 10  2  0
 10 11  1  0
 11 12  1  0
 12 13  2  0
 12 18  1  0
 13 14  1  0
 14 15  1  1
 14 16  1  0
 16 17  1  0
 17 18  2  0
 19 20  1  0
 20 21  1  0
 21 22  1  0
 21 35  1  0
 22 23  2  0
 22 24  1  0
 24 25  2  3
 25 26  1  0
 25 27  1  0
 27 28  2  0
 27 33  1  0
 28 29  1  0
 29 30  1  0
 30 31  2  0
 30 32  1  0
 32 33  1  0
 33 34  2  0
M  END
