
     RDKit          3D

 34 40  0  0  0  0  0  0  0  0999 V2000
    6.2860    3.6960    2.4970 C   0  0  0  0  0  0  0  0  0  0  0  0
    5.0970    2.9380    2.0080 C   0  0  0  0  0  0  0  0  0  0  0  0
    3.8820    3.2330    2.5010 N   0  0  0  0  0  0  0  0  0  0  0  0
    2.8420    2.5210    2.0260 C   0  0  0  0  0  0  0  0  0  0  0  0
    1.5560    2.7900    2.4690 C   0  0  0  0  0  0  0  0  0  0  0  0
    0.4640    2.0830    1.9720 C   0  0  0  0  0  0  0  0  0  0  0  0
    0.6110    1.1020    1.0320 C   0  0  0  0  0  0  0  0  0  0  0  0
   -0.5350    0.3780    0.5290 C   0  0  0  0  0  0  0  0  0  0  0  0
   -0.3280   -0.4450   -0.4120 O   0  0  0  0  0  0  0  0  0  0  0  0
   -1.8700    0.4990    0.9850 N   0  0  0  0  0  0  0  0  0  0  0  0
   -2.9690   -0.2640    0.4270 C   0  0  1  0  0  0  0  0  0  0  0  0
   -2.7820   -1.7500    0.5640 C   0  0  0  0  0  0  0  0  0  0  0  0
   -4.0110   -2.4170   -0.0130 C   0  0  2  0  0  0  0  0  0  0  0  0
   -4.1850   -2.1050   -1.4730 C   0  0  0  0  0  0  0  0  0  0  0  0
   -4.3520   -0.6070   -1.6060 C   0  0  1  0  0  0  0  0  0  0  0  0
   -5.6170   -0.1800   -0.8790 C   0  0  0  0  0  0  0  0  0  0  0  0
   -5.4540   -0.5160    0.5740 C   0  0  1  0  0  0  0  0  0  0  0  0
   -5.2760   -2.0330    0.7100 C   0  0  0  0  0  0  0  0  0  0  0  0
   -4.2240    0.1050    1.1900 C   0  0  0  0  0  0  0  0  0  0  0  0
   -3.2070    0.1550   -1.0160 C   0  0  0  0  0  0  0  0  0  0  0  0
    1.9110    0.8280    0.5830 C   0  0  0  0  0  0  0  0  0  0  0  0
    2.9950    1.5230    1.0740 C   0  0  0  0  0  0  0  0  0  0  0  0
    4.2390    1.2420    0.5950 N   0  0  0  0  0  0  0  0  0  0  0  0
    4.6860    0.3660   -0.2960 C   0  0  0  0  0  0  0  0  0  0  0  0
    4.0490   -0.6370   -1.1010 C   0  0  0  0  0  0  0  0  0  0  0  0
    3.9120   -0.5230   -2.4690 C   0  0  0  0  0  0  0  0  0  0  0  0
    3.3880   -1.5320   -3.2490 C   0  0  0  0  0  0  0  0  0  0  0  0
    2.9670   -2.7220   -2.6950 C   0  0  0  0  0  0  0  0  0  0  0  0
    3.0910   -2.8650   -1.3300 C   0  0  0  0  0  0  0  0  0  0  0  0
    3.6160   -1.8540   -0.5560 C   0  0  0  0  0  0  0  0  0  0  0  0
    3.7610   -2.0730    1.1810 Cl  0  0  0  0  0  0  0  0  0  0  0  0
    6.0470    0.5750   -0.3590 N   0  0  0  0  0  0  0  0  0  0  0  0
    6.3820    1.5240    0.4590 N   0  0  0  0  0  0  0  0  0  0  0  0
    5.2930    1.9660    1.0730 C   0  0  0  0  0  0  0  0  0  0  0  0
  1  2  1  0
  2  3  2  0
  2 34  1  0
  3  4  1  0
  4  5  2  0
  4 22  1  0
  5  6  1  0
  6  7  2  0
  7  8  1  0
  7 21  1  0
  8  9  2  0
  8 10  1  0
 11 10  1  1
 11 12  1  0
 11 19  1  0
 11 20  1  0
 13 12  1  1
 13 14  1  0
 13 18  1  0
 14 15  1  0
 15 16  1  1
 15 20  1  0
 17 16  1  6
 17 18  1  0
 17 19  1  0
 21 22  2  0
 22 23  1  0
 23 24  1  0
 23 34  1  0
 24 25  1  0
 24 32  2  0
 25 26  2  0
 25 30  1  0
 26 27  1  0
 27 28  2  0
 28 29  1  0
 29 30  2  0
 30 31  1  0
 32 33  1  0
 33 34  2  0
M  END
