
     RDKit          3D

 35 39  0  0  0  0  0  0  0  0999 V2000
   -6.0390   -4.6270   -0.5960 C   0  0  0  0  0  0  0  0  0  0  0  0
   -5.4760   -3.4410   -1.3140 C   0  0  1  0  0  0  0  0  0  0  0  0
   -4.8470   -3.7770   -2.5090 F   0  0  0  0  0  0  0  0  0  0  0  0
   -6.5110   -2.5370   -1.6020 F   0  0  0  0  0  0  0  0  0  0  0  0
   -4.4380   -2.7570   -0.4860 C   0  0  0  0  0  0  0  0  0  0  0  0
   -4.0720   -3.3140    0.7290 C   0  0  0  0  0  0  0  0  0  0  0  0
   -3.1380   -2.6490    1.4540 N   0  0  0  0  0  0  0  0  0  0  0  0
   -2.5970   -1.5080    1.0150 C   0  0  0  0  0  0  0  0  0  0  0  0
   -2.9520   -0.9450   -0.1830 C   0  0  0  0  0  0  0  0  0  0  0  0
   -2.3790    0.3500   -0.6780 C   0  0  0  0  0  0  0  0  0  0  0  0
   -1.3600    0.8010    0.2710 N   0  0  0  0  0  0  0  0  0  0  0  0
   -1.1000    2.2360    0.0410 C   0  0  0  0  0  0  0  0  0  0  0  0
   -2.3190    3.0010    0.3650 C   0  0  0  0  0  0  0  0  0  0  0  0
   -3.5050    2.5350    0.8730 C   0  0  0  0  0  0  0  0  0  0  0  0
   -4.3000    3.6340    1.0180 N   0  0  0  0  0  0  0  0  0  0  0  0
   -3.6430    4.7150    0.6260 N   0  0  0  0  0  0  0  0  0  0  0  0
   -2.4110    4.3930    0.2100 C   0  0  0  0  0  0  0  0  0  0  0  0
   -1.3180    5.2650   -0.3230 C   0  0  0  0  0  0  0  0  0  0  0  0
   -1.6750    6.5890   -0.3510 O   0  0  0  0  0  0  0  0  0  0  0  0
   -0.1100    0.0940   -0.0410 C   0  0  1  0  0  0  0  0  0  0  0  0
    0.5130    0.4920   -1.3360 C   0  0  0  0  0  0  0  0  0  0  0  0
    1.7400    1.3700   -1.1160 C   0  0  0  0  0  0  0  0  0  0  0  0
    2.7280    0.5720   -0.3250 C   0  0  0  0  0  0  0  0  0  0  0  0
    4.0400    0.4630   -0.7050 C   0  0  0  0  0  0  0  0  0  0  0  0
    4.8320   -0.3530    0.0920 C   0  0  0  0  0  0  0  0  0  0  0  0
    4.3510   -1.0210    1.1940 C   0  0  0  0  0  0  0  0  0  0  0  0
    3.0570   -0.8900    1.5400 N   0  0  0  0  0  0  0  0  0  0  0  0
    2.2480   -0.0920    0.7800 C   0  0  0  0  0  0  0  0  0  0  0  0
    0.8030    0.1270    1.1310 C   0  0  0  0  0  0  0  0  0  0  0  0
    5.2970   -1.9050    1.9330 C   0  0  0  0  0  0  0  0  0  0  0  0
    6.1440   -2.7070    0.9710 C   0  0  0  0  0  0  0  0  0  0  0  0
    6.6840   -1.9190   -0.1820 C   0  0  2  0  0  0  0  0  0  0  0  0
    8.0850   -1.9420   -0.1150 F   0  0  0  0  0  0  0  0  0  0  0  0
    6.2590   -0.5010   -0.2420 C   0  0  0  0  0  0  0  0  0  0  0  0
   -3.8770   -1.6010   -0.9080 N   0  0  0  0  0  0  0  0  0  0  0  0
  2  1  1  1
  2  3  1  0
  2  4  1  0
  2  5  1  0
  5  6  2  0
  5 35  1  0
  6  7  1  0
  7  8  2  0
  8  9  1  0
  9 10  1  0
  9 35  2  0
 10 11  1  0
 11 12  1  0
 20 11  1  1
 12 13  1  0
 13 14  1  0
 13 17  2  0
 14 15  2  0
 15 16  1  0
 16 17  1  0
 17 18  1  0
 18 19  1  0
 20 21  1  0
 20 29  1  0
 21 22  1  0
 22 23  1  0
 23 24  2  0
 23 28  1  0
 24 25  1  0
 25 26  2  0
 25 34  1  0
 26 27  1  0
 26 30  1  0
 27 28  2  0
 28 29  1  0
 30 31  1  0
 31 32  1  0
 32 33  1  1
 32 34  1  0
M  END
