
     RDKit          3D

 35 39  0  0  0  0  0  0  0  0999 V2000
   -9.3350   -0.4610    0.8300 C   0  0  0  0  0  0  0  0  0  0  0  0
   -8.3640   -0.5990    1.9830 C   0  0  0  0  0  0  0  0  0  0  0  0
   -6.9770   -0.4710    1.4490 C   0  0  2  0  0  0  0  0  0  0  0  0
   -5.9990   -0.6010    2.6060 C   0  0  0  0  0  0  0  0  0  0  0  0
   -4.6700   -0.7600    2.0100 N   0  0  0  0  0  0  0  0  0  0  0  0
   -4.3360   -0.0480    0.9970 C   0  0  0  0  0  0  0  0  0  0  0  0
   -3.0280   -0.1580    0.3520 C   0  0  0  0  0  0  0  0  0  0  0  0
   -2.8890    0.2010   -0.9730 C   0  0  0  0  0  0  0  0  0  0  0  0
   -1.6960    0.1600   -1.6510 C   0  0  0  0  0  0  0  0  0  0  0  0
   -0.5760   -0.2730   -0.9310 C   0  0  0  0  0  0  0  0  0  0  0  0
    0.7430   -0.2980   -1.6220 C   0  0  0  0  0  0  0  0  0  0  0  0
    1.4520    0.9500   -1.4130 N   0  0  0  0  0  0  0  0  0  0  0  0
    0.7720    2.2300   -1.4540 C   0  0  0  0  0  0  0  0  0  0  0  0
    1.6330    3.1540   -2.2760 C   0  0  0  0  0  0  0  0  0  0  0  0
    1.0600    3.9020   -3.0930 O   0  0  0  0  0  0  0  0  0  0  0  0
    3.0450    3.1280   -2.0800 N   0  0  0  0  0  0  0  0  0  0  0  0
    3.6620    1.9760   -1.5350 C   0  0  0  0  0  0  0  0  0  0  0  0
    4.9450    1.5910   -1.2280 C   0  0  0  0  0  0  0  0  0  0  0  0
    4.9510    0.3450   -0.7350 N   0  0  0  0  0  0  0  0  0  0  0  0
    6.1290   -0.3810   -0.3280 C   0  0  0  0  0  0  0  0  0  0  0  0
    6.0560   -1.7010    0.0450 C   0  0  0  0  0  0  0  0  0  0  0  0
    7.2110   -2.4150    0.4190 C   0  0  0  0  0  0  0  0  0  0  0  0
    8.4400   -1.8010    0.4170 C   0  0  0  0  0  0  0  0  0  0  0  0
    9.6800   -2.5530    0.8050 C   0  0  1  0  0  0  0  0  0  0  0  0
   10.5510   -2.6450   -0.2800 F   0  0  0  0  0  0  0  0  0  0  0  0
   10.3410   -1.9290    1.8440 F   0  0  0  0  0  0  0  0  0  0  0  0
    9.3520   -3.8200    1.1820 F   0  0  0  0  0  0  0  0  0  0  0  0
    8.5210   -0.4840    0.0460 C   0  0  0  0  0  0  0  0  0  0  0  0
    7.3680    0.2130   -0.3220 C   0  0  0  0  0  0  0  0  0  0  0  0
    3.7010   -0.0570   -0.7270 N   0  0  0  0  0  0  0  0  0  0  0  0
    2.8510    0.8980   -1.2070 C   0  0  0  0  0  0  0  0  0  0  0  0
   -0.6830   -0.6330    0.3720 C   0  0  0  0  0  0  0  0  0  0  0  0
   -1.9190   -0.5780    1.0280 C   0  0  0  0  0  0  0  0  0  0  0  0
   -5.2850    0.9120    0.4900 N   0  0  0  0  0  0  0  0  0  0  0  0
   -6.7110    0.8130    0.7200 C   0  0  0  0  0  0  0  0  0  0  0  0
  1  2  1  0
  3  2  1  1
  3  4  1  0
  3 35  1  0
  4  5  1  0
  5  6  2  0
  6  7  1  0
  6 34  1  0
  7  8  2  0
  7 33  1  0
  8  9  1  0
  9 10  2  0
 10 11  1  0
 10 32  1  0
 11 12  1  0
 12 13  1  0
 12 31  1  0
 13 14  1  0
 14 15  2  0
 14 16  1  0
 16 17  1  0
 17 18  2  0
 17 31  1  0
 18 19  1  0
 19 20  1  0
 19 30  1  0
 20 21  2  0
 20 29  1  0
 21 22  1  0
 22 23  2  0
 23 24  1  0
 23 28  1  0
 24 25  1  6
 24 26  1  0
 24 27  1  0
 28 29  2  0
 30 31  2  0
 32 33  2  0
 34 35  1  0
M  END
