
     RDKit          3D

 35 39  0  0  0  0  0  0  0  0999 V2000
   -8.9330    2.3320   -1.5800 F   0  0  0  0  0  0  0  0  0  0  0  0
   -8.1570    1.2560   -1.7730 C   0  0  0  0  0  0  0  0  0  0  0  0
   -7.8290    0.5040   -0.7240 C   0  0  0  0  0  0  0  0  0  0  0  0
   -8.3670    0.9470    0.5630 C   0  0  0  0  0  0  0  0  0  0  0  0
   -7.7280    0.2910    1.7440 C   0  0  0  0  0  0  0  0  0  0  0  0
   -6.2470    0.2570    1.5490 C   0  0  0  0  0  0  0  0  0  0  0  0
   -5.6460    1.3590    1.9070 C   0  0  0  0  0  0  0  0  0  0  0  0
   -4.2530    1.5130    1.7970 N   0  0  0  0  0  0  0  0  0  0  0  0
   -3.4520    0.4590    1.2850 C   0  0  0  0  0  0  0  0  0  0  0  0
   -2.0220    0.6360    1.1780 N   0  0  0  0  0  0  0  0  0  0  0  0
   -1.4040    0.1220    0.0080 C   0  0  0  0  0  0  0  0  0  0  0  0
   -0.0720    0.1930   -0.2790 N   0  0  0  0  0  0  0  0  0  0  0  0
    0.1740   -0.3900   -1.4620 C   0  0  0  0  0  0  0  0  0  0  0  0
    1.4410   -0.5620   -2.1940 C   0  0  0  0  0  0  0  0  0  0  0  0
    2.5850   -0.0040   -1.5450 N   0  0  0  0  0  0  0  0  0  0  0  0
    3.7350   -0.2480   -2.4000 C   0  0  0  0  0  0  0  0  0  0  0  0
    4.5490   -1.3560   -1.8360 C   0  0  0  0  0  0  0  0  0  0  0  0
    5.1760   -0.9320   -0.6050 N   0  0  0  0  0  0  0  0  0  0  0  0
    6.2740   -0.0750   -0.9130 C   0  0  0  0  0  0  0  0  0  0  0  0
    7.0470    0.4130    0.2340 C   0  0  0  0  0  0  0  0  0  0  0  0
    7.8050    1.5720    0.0310 C   0  0  0  0  0  0  0  0  0  0  0  0
    8.5820    2.1400    1.0090 C   0  0  0  0  0  0  0  0  0  0  0  0
    8.6420    1.5720    2.2620 C   0  0  0  0  0  0  0  0  0  0  0  0
    7.8990    0.4300    2.4740 C   0  0  0  0  0  0  0  0  0  0  0  0
    7.9420   -0.1440    3.6930 F   0  0  0  0  0  0  0  0  0  0  0  0
    7.1100   -0.1460    1.4760 C   0  0  0  0  0  0  0  0  0  0  0  0
    4.1920   -0.4010    0.2780 C   0  0  0  0  0  0  0  0  0  0  0  0
    2.7680   -0.5100   -0.2210 C   0  0  0  0  0  0  0  0  0  0  0  0
   -1.0250   -0.8180   -1.8930 N   0  0  0  0  0  0  0  0  0  0  0  0
   -1.9440   -0.5050   -1.0090 O   0  0  0  0  0  0  0  0  0  0  0  0
   -4.0280   -0.6590    0.9170 C   0  0  0  0  0  0  0  0  0  0  0  0
   -5.4770   -0.8780    1.0090 C   0  0  2  0  0  0  0  0  0  0  0  0
   -6.0490   -1.1940   -0.3480 C   0  0  0  0  0  0  0  0  0  0  0  0
   -6.9920   -0.6370   -1.0390 C   0  0  0  0  0  0  0  0  0  0  0  0
   -7.2140   -1.2340   -2.2540 F   0  0  0  0  0  0  0  0  0  0  0  0
  1  2  1  0
  2  3  2  3
  3  4  1  0
  3 34  1  0
  4  5  1  0
  5  6  1  0
  6  7  2  0
  6 32  1  0
  7  8  1  0
  8  9  1  0
  9 10  1  0
  9 31  2  0
 10 11  1  0
 11 12  2  0
 11 30  1  0
 12 13  1  0
 13 14  1  0
 13 29  2  0
 14 15  1  0
 15 16  1  0
 15 28  1  0
 16 17  1  0
 17 18  1  0
 18 19  1  0
 18 27  1  0
 19 20  1  0
 20 21  2  0
 20 26  1  0
 21 22  1  0
 22 23  2  0
 23 24  1  0
 24 25  1  0
 24 26  2  0
 27 28  1  0
 29 30  1  0
 32 31  1  6
 32 33  1  0
 33 34  2  0
 34 35  1  0
M  END
