
     RDKit          3D

 35 39  0  0  0  0  0  0  0  0999 V2000
   -4.5820   -1.7460   -2.1430 O   0  0  0  0  0  0  0  0  0  0  0  0
   -4.6640   -0.5910   -1.7080 C   0  0  0  0  0  0  0  0  0  0  0  0
   -3.6100   -0.0670   -0.9270 N   0  0  0  0  0  0  0  0  0  0  0  0
   -2.4130   -0.7320   -0.5660 C   0  0  0  0  0  0  0  0  0  0  0  0
   -2.0740   -2.0000   -0.9670 C   0  0  0  0  0  0  0  0  0  0  0  0
   -0.8990   -2.6470   -0.6190 C   0  0  0  0  0  0  0  0  0  0  0  0
   -0.0350   -1.9610    0.1750 C   0  0  0  0  0  0  0  0  0  0  0  0
   -0.3030   -0.6710    0.6240 C   0  0  0  0  0  0  0  0  0  0  0  0
    0.6140   -0.0270    1.4270 C   0  0  0  0  0  0  0  0  0  0  0  0
    0.4230    1.2520    1.9110 C   0  0  0  0  0  0  0  0  0  0  0  0
    1.3450    1.8200    2.7460 C   0  0  0  0  0  0  0  0  0  0  0  0
    2.6870    1.3720    3.0100 C   0  0  0  0  0  0  0  0  0  0  0  0
    3.6100    0.7640    2.3920 C   0  0  0  0  0  0  0  0  0  0  0  0
    3.6510    0.2660    1.0780 N   0  0  0  0  0  0  0  0  0  0  0  0
    4.0730   -1.0480    0.6070 C   0  0  0  0  0  0  0  0  0  0  0  0
    4.6500   -0.7180   -0.7580 C   0  0  2  0  0  0  0  0  0  0  0  0
    6.0250   -0.5560   -0.7120 O   0  0  0  0  0  0  0  0  0  0  0  0
    6.6910   -1.4430   -1.5500 C   0  0  0  0  0  0  0  0  0  0  0  0
    8.1910   -1.2410   -1.4760 C   0  0  0  0  0  0  0  0  0  0  0  0
    8.8480   -2.1220   -2.3080 F   0  0  0  0  0  0  0  0  0  0  0  0
    3.9400    0.4980   -1.1840 C   0  0  0  0  0  0  0  0  0  0  0  0
    3.9190    0.9680   -2.3350 O   0  0  0  0  0  0  0  0  0  0  0  0
    3.2850    1.0410   -0.0580 N   0  0  0  0  0  0  0  0  0  0  0  0
    0.9970    3.1050    3.2400 C   0  0  0  0  0  0  0  0  0  0  0  0
   -0.1410    3.6780    2.8880 N   0  0  0  0  0  0  0  0  0  0  0  0
   -1.0320    3.1040    2.0590 C   0  0  0  0  0  0  0  0  0  0  0  0
   -2.0870    3.7000    1.7650 O   0  0  0  0  0  0  0  0  0  0  0  0
   -0.7550    1.8550    1.5480 C   0  0  0  0  0  0  0  0  0  0  0  0
   -1.6860    1.2040    0.7340 C   0  0  0  0  0  0  0  0  0  0  0  0
   -1.4860   -0.0700    0.2500 C   0  0  0  0  0  0  0  0  0  0  0  0
   -5.8900    0.2280   -2.0230 C   0  0  2  0  0  0  0  0  0  0  0  0
   -6.5780    0.6620   -0.7440 C   0  0  0  0  0  0  0  0  0  0  0  0
   -7.5190   -0.4460   -0.4190 C   0  0  0  0  0  0  0  0  0  0  0  0
   -7.7010   -1.2240   -1.4690 C   0  0  0  0  0  0  0  0  0  0  0  0
   -6.9100   -0.7250   -2.5980 C   0  0  0  0  0  0  0  0  0  0  0  0
  1  2  2  0
  2  3  1  0
 31  2  1  1
  3  4  1  0
  4  5  2  0
  4 30  1  0
  5  6  1  0
  6  7  2  0
  7  8  1  0
  8  9  2  0
  8 30  1  0
  9 10  1  0
 10 11  1  0
 10 28  2  0
 11 12  1  0
 11 24  2  0
 12 13  2  3
 13 14  1  0
 14 15  1  0
 14 23  1  0
 15 16  1  0
 16 17  1  1
 16 21  1  0
 17 18  1  0
 18 19  1  0
 19 20  1  0
 21 22  2  0
 21 23  1  0
 24 25  1  0
 25 26  1  0
 26 27  2  0
 26 28  1  0
 28 29  1  0
 29 30  2  0
 31 32  1  0
 31 35  1  0
 32 33  1  0
 33 34  2  0
 34 35  1  0
M  END
