
     RDKit          3D

 35 39  0  0  0  0  0  0  0  0999 V2000
   -7.6430   -0.6480   -2.2120 C   0  0  0  0  0  0  0  0  0  0  0  0
   -6.3810   -1.7450   -1.5900 S   0  0  0  0  0  0  0  0  0  0  0  0
   -6.4300   -2.0490    0.1590 C   0  0  0  0  0  0  0  0  0  0  0  0
   -6.1140   -0.8370    1.0250 C   0  0  1  0  0  0  0  0  0  0  0  0
   -6.2300   -1.3760    2.4670 C   0  0  0  0  0  0  0  0  0  0  0  0
   -4.6800   -0.4070    0.8520 C   0  0  0  0  0  0  0  0  0  0  0  0
   -4.4420    0.8930    0.3650 N   0  0  0  0  0  0  0  0  0  0  0  0
   -3.2110    1.5130    0.2080 C   0  0  0  0  0  0  0  0  0  0  0  0
   -3.3210    2.7660   -0.2530 O   0  0  0  0  0  0  0  0  0  0  0  0
   -1.9170    1.0720    0.4410 N   0  0  0  0  0  0  0  0  0  0  0  0
   -0.8780    2.1280    0.1670 C   0  0  0  0  0  0  0  0  0  0  0  0
    0.0630    1.5660   -0.8830 C   0  0  0  0  0  0  0  0  0  0  0  0
    0.5730    0.1810   -0.5540 C   0  0  1  0  0  0  0  0  0  0  0  0
    1.9970   -0.1560   -0.6700 C   0  0  0  0  0  0  0  0  0  0  0  0
    2.2230   -1.0710   -1.4760 O   0  0  0  0  0  0  0  0  0  0  0  0
    3.0670    0.4420    0.0210 N   0  0  0  0  0  0  0  0  0  0  0  0
    4.4290    0.1190   -0.0870 C   0  0  0  0  0  0  0  0  0  0  0  0
    4.9230   -0.9380   -0.7860 C   0  0  0  0  0  0  0  0  0  0  0  0
    6.3040   -1.2110   -0.8690 C   0  0  0  0  0  0  0  0  0  0  0  0
    7.2070   -0.4060   -0.2350 C   0  0  0  0  0  0  0  0  0  0  0  0
    6.7280    0.6730    0.4820 C   0  0  0  0  0  0  0  0  0  0  0  0
    7.6550    1.4770    1.1180 C   0  0  0  0  0  0  0  0  0  0  0  0
    8.9500    1.2160    1.0380 N   0  0  0  0  0  0  0  0  0  0  0  0
    9.4070    0.1730    0.3450 N   0  0  0  0  0  0  0  0  0  0  0  0
   10.6680   -0.2370    0.1610 C   0  0  0  0  0  0  0  0  0  0  0  0
   10.6270   -1.3800   -0.6400 C   0  0  0  0  0  0  0  0  0  0  0  0
   11.9830   -2.3290   -1.1930 Cl  0  0  0  0  0  0  0  0  0  0  0  0
    9.3130   -1.6360   -0.9260 C   0  0  0  0  0  0  0  0  0  0  0  0
    8.5600   -0.6500   -0.2980 C   0  0  0  0  0  0  0  0  0  0  0  0
    5.3790    0.9240    0.5510 C   0  0  0  0  0  0  0  0  0  0  0  0
   -0.4270   -0.8230   -0.0300 C   0  0  0  0  0  0  0  0  0  0  0  0
   -1.5080   -0.2030    0.8800 C   0  0  0  0  0  0  0  0  0  0  0  0
   -5.6230    1.7150   -0.0380 C   0  0  0  0  0  0  0  0  0  0  0  0
   -6.6890    1.3990    0.9770 C   0  0  0  0  0  0  0  0  0  0  0  0
   -7.0850    0.0770    0.8580 O   0  0  0  0  0  0  0  0  0  0  0  0
  1  2  1  0
  2  3  1  0
  3  4  1  0
  4  5  1  1
  4  6  1  0
  4 35  1  0
  6  7  1  0
  7  8  1  0
  7 33  1  0
  8  9  2  0
  8 10  1  0
 10 11  1  0
 10 32  1  0
 11 12  1  0
 12 13  1  0
 13 14  1  1
 13 31  1  0
 14 15  2  0
 14 16  1  0
 16 17  1  0
 17 18  2  0
 17 30  1  0
 18 19  1  0
 19 20  2  0
 20 21  1  0
 20 29  1  0
 21 22  1  0
 21 30  2  0
 22 23  2  0
 23 24  1  0
 24 25  1  0
 24 29  1  0
 25 26  2  0
 26 27  1  0
 26 28  1  0
 28 29  2  0
 31 32  1  0
 33 34  1  0
 34 35  1  0
M  END
