
     RDKit          3D

 35 39  0  0  0  0  0  0  0  0999 V2000
    6.3560   -0.1620   -0.2920 C   0  0  0  0  0  0  0  0  0  0  0  0
    5.2860    0.8370   -0.6130 C   0  0  1  0  0  0  0  0  0  0  0  0
    3.9280    0.3680   -0.7160 C   0  0  0  0  0  0  0  0  0  0  0  0
    2.8540    0.9450   -0.2670 C   0  0  0  0  0  0  0  0  0  0  0  0
    1.5470    0.3010   -0.4680 C   0  0  0  0  0  0  0  0  0  0  0  0
    0.4460    0.8740   -0.0180 N   0  0  0  0  0  0  0  0  0  0  0  0
   -0.7730    0.3030   -0.1880 C   0  0  0  0  0  0  0  0  0  0  0  0
   -1.9450    1.0150    0.2660 N   0  0  0  0  0  0  0  0  0  0  0  0
   -1.7710    2.2670    0.9500 C   0  0  0  0  0  0  0  0  0  0  0  0
   -3.1270    2.8090    1.3190 C   0  0  1  0  0  0  0  0  0  0  0  0
   -3.0230    4.1460    1.9960 C   0  0  0  0  0  0  0  0  0  0  0  0
   -3.7230    5.0780    1.0560 C   0  0  0  0  0  0  0  0  0  0  0  0
   -3.6450    4.3000   -0.2580 C   0  0  0  0  0  0  0  0  0  0  0  0
   -3.8470    2.9880    0.1470 O   0  0  0  0  0  0  0  0  0  0  0  0
   -0.8470   -0.9030   -0.8430 C   0  0  0  0  0  0  0  0  0  0  0  0
    0.3340   -1.4850   -1.3120 C   0  0  0  0  0  0  0  0  0  0  0  0
    1.4830   -0.8630   -1.1060 N   0  0  0  0  0  0  0  0  0  0  0  0
    0.0140   -2.7340   -2.0380 C   0  0  0  0  0  0  0  0  0  0  0  0
    0.8770   -3.6200   -2.6630 O   0  0  0  0  0  0  0  0  0  0  0  0
    2.2320   -3.6100   -2.2670 C   0  0  0  0  0  0  0  0  0  0  0  0
    2.2830   -3.9110   -0.9240 F   0  0  0  0  0  0  0  0  0  0  0  0
   -1.3050   -2.8920   -2.0030 C   0  0  0  0  0  0  0  0  0  0  0  0
   -2.2240   -3.9070   -2.5290 C   0  0  0  0  0  0  0  0  0  0  0  0
   -1.9400   -4.4560   -3.6190 O   0  0  0  0  0  0  0  0  0  0  0  0
   -3.3830   -4.1960   -1.7500 N   0  0  0  0  0  0  0  0  0  0  0  0
   -3.5670   -3.4620   -0.5330 C   0  0  0  0  0  0  0  0  0  0  0  0
   -4.5040   -3.9560    0.3930 C   0  0  0  0  0  0  0  0  0  0  0  0
   -4.5830   -3.5130    1.6880 C   0  0  0  0  0  0  0  0  0  0  0  0
   -3.6890   -2.5420    2.0650 C   0  0  0  0  0  0  0  0  0  0  0  0
   -2.7360   -2.0080    1.1840 C   0  0  0  0  0  0  0  0  0  0  0  0
   -2.6880   -2.4680   -0.1060 C   0  0  0  0  0  0  0  0  0  0  0  0
   -1.9050   -1.8130   -1.2030 C   0  0  1  0  0  0  0  0  0  0  0  0
    5.4390    2.0730    0.2250 C   0  0  0  0  0  0  0  0  0  0  0  0
    5.4270    1.6700    1.6820 C   0  0  0  0  0  0  0  0  0  0  0  0
    4.3020    1.0050    2.0820 O   0  0  0  0  0  0  0  0  0  0  0  0
  2  1  1  1
  2  3  1  0
  2 33  1  0
  3  4  2  3
  4  5  1  0
  5  6  2  0
  5 17  1  0
  6  7  1  0
  7  8  1  0
  7 15  2  0
  8  9  1  0
 10  9  1  6
 10 11  1  0
 10 14  1  0
 11 12  1  0
 12 13  1  0
 13 14  1  0
 15 16  1  0
 32 15  1  1
 16 17  2  0
 16 18  1  0
 18 19  1  0
 18 22  2  0
 19 20  1  0
 20 21  1  0
 22 23  1  0
 22 32  1  0
 23 24  2  0
 23 25  1  0
 25 26  1  0
 26 27  2  0
 26 31  1  0
 27 28  1  0
 28 29  2  0
 29 30  1  0
 30 31  2  0
 31 32  1  0
 33 34  1  0
 34 35  1  0
M  END
