
     RDKit          3D

 35 39  0  0  0  0  0  0  0  0999 V2000
   -3.8490   -1.6540    1.4890 O   0  0  0  0  0  0  0  0  0  0  0  0
   -4.7250   -1.7050    0.5950 C   0  0  0  0  0  0  0  0  0  0  0  0
   -4.3950   -1.0780   -0.6640 N   0  0  0  0  0  0  0  0  0  0  0  0
   -3.1300   -0.4340   -0.8640 C   0  0  0  0  0  0  0  0  0  0  0  0
   -2.9660    0.1380   -2.1920 C   0  0  0  0  0  0  0  0  0  0  0  0
   -3.8930    0.0730   -3.1990 C   0  0  0  0  0  0  0  0  0  0  0  0
   -3.6250    0.6370   -4.4580 C   0  0  0  0  0  0  0  0  0  0  0  0
   -2.4660    1.2490   -4.7120 N   0  0  0  0  0  0  0  0  0  0  0  0
   -1.5720    1.3020   -3.7150 C   0  0  0  0  0  0  0  0  0  0  0  0
   -1.7600    0.7790   -2.4670 C   0  0  0  0  0  0  0  0  0  0  0  0
   -0.7380    0.9020   -1.4040 C   0  0  0  0  0  0  0  0  0  0  0  0
   -1.0480    2.0190   -0.4870 C   0  0  0  0  0  0  0  0  0  0  0  0
   -2.0550    2.7460   -0.6820 O   0  0  0  0  0  0  0  0  0  0  0  0
   -0.1910    2.2590    0.6160 N   0  0  0  0  0  0  0  0  0  0  0  0
   -0.4900    3.3460    1.5090 C   0  0  0  0  0  0  0  0  0  0  0  0
    0.7780    4.0560    1.9640 C   0  0  0  0  0  0  0  0  0  0  0  0
    1.9060    3.4910    1.3690 O   0  0  0  0  0  0  0  0  0  0  0  0
    1.9280    2.1420    1.7170 C   0  0  2  0  0  0  0  0  0  0  0  0
    3.3110    1.6250    1.5980 C   0  0  0  0  0  0  0  0  0  0  0  0
    4.3280    2.3420    2.1040 N   0  0  0  0  0  0  0  0  0  0  0  0
    5.6050    1.9530    2.0380 C   0  0  0  0  0  0  0  0  0  0  0  0
    5.9060    0.7490    1.4170 C   0  0  0  0  0  0  0  0  0  0  0  0
    4.8930    0.0010    0.8940 C   0  0  0  0  0  0  0  0  0  0  0  0
    5.1310   -1.2990    0.2070 C   0  0  0  0  0  0  0  0  0  0  0  0
    4.1110   -1.9460   -0.2540 C   0  0  0  0  0  0  0  0  0  0  0  0
    4.0040   -3.2190   -0.9620 C   0  0  0  0  0  0  0  0  0  0  0  0
    5.6220   -3.9540   -1.2040 S   0  0  0  0  0  0  0  0  0  0  0  0
    6.8130   -2.8700   -0.4840 C   0  0  0  0  0  0  0  0  0  0  0  0
    8.5080   -3.3520   -0.5740 Cl  0  0  0  0  0  0  0  0  0  0  0  0
    6.4880   -1.7620    0.0930 C   0  0  0  0  0  0  0  0  0  0  0  0
    3.6250    0.4740    1.0070 N   0  0  0  0  0  0  0  0  0  0  0  0
    0.9650    1.4160    0.8240 C   0  0  0  0  0  0  0  0  0  0  0  0
   -6.0360   -2.3720    0.8040 C   0  0  1  0  0  0  0  0  0  0  0  0
   -5.9110   -3.7790    1.4330 C   0  0  0  0  0  0  0  0  0  0  0  0
   -6.5550   -2.6460    2.1440 C   0  0  0  0  0  0  0  0  0  0  0  0
  1  2  2  0
  2  3  1  0
 33  2  1  1
  3  4  1  0
  4  5  1  0
  5  6  2  0
  5 10  1  0
  6  7  1  0
  7  8  2  0
  8  9  1  0
  9 10  2  0
 10 11  1  0
 11 12  1  0
 12 13  2  0
 12 14  1  0
 14 15  1  0
 14 32  1  0
 15 16  1  0
 16 17  1  0
 17 18  1  0
 18 19  1  6
 18 32  1  0
 19 20  2  0
 19 31  1  0
 20 21  1  0
 21 22  2  0
 22 23  1  0
 23 24  1  0
 23 31  2  0
 24 25  2  0
 24 30  1  0
 25 26  1  0
 26 27  1  0
 27 28  1  0
 28 29  1  0
 28 30  2  0
 33 34  1  0
 33 35  1  0
 34 35  1  0
M  END
