
     RDKit          3D

 35 39  0  0  0  0  0  0  0  0999 V2000
    7.0810   -1.0970   -0.6220 C   0  0  0  0  0  0  0  0  0  0  0  0
    6.1320    0.0180   -0.2280 C   0  0  0  0  0  0  0  0  0  0  0  0
    5.2720    0.5150   -1.0760 C   0  0  0  0  0  0  0  0  0  0  0  0
    4.2810    1.5780   -0.8820 C   0  0  0  0  0  0  0  0  0  0  0  0
    4.0440    2.1220    0.3750 N   0  0  0  0  0  0  0  0  0  0  0  0
    3.2610    1.4490    1.3400 C   0  0  1  0  0  0  0  0  0  0  0  0
    1.8590    1.3230    0.8110 C   0  0  0  0  0  0  0  0  0  0  0  0
    1.0720    0.2860    0.8400 C   0  0  0  0  0  0  0  0  0  0  0  0
   -0.2930    0.3960    0.2490 C   0  0  0  0  0  0  0  0  0  0  0  0
   -1.1950   -0.5560    0.2430 C   0  0  0  0  0  0  0  0  0  0  0  0
   -1.1960   -1.9180    0.7650 C   0  0  0  0  0  0  0  0  0  0  0  0
   -1.0190   -2.3150    2.0650 C   0  0  0  0  0  0  0  0  0  0  0  0
   -1.0830   -3.6570    2.1560 N   0  0  0  0  0  0  0  0  0  0  0  0
   -1.3030   -4.1950    0.9300 C   0  0  0  0  0  0  0  0  0  0  0  0
   -1.4530   -5.4860    0.4690 C   0  0  0  0  0  0  0  0  0  0  0  0
   -1.6750   -5.6730   -0.8720 C   0  0  0  0  0  0  0  0  0  0  0  0
   -1.8350   -6.9230   -1.4160 F   0  0  0  0  0  0  0  0  0  0  0  0
   -1.7490   -4.6150   -1.7550 C   0  0  0  0  0  0  0  0  0  0  0  0
   -1.5950   -3.3240   -1.2690 C   0  0  0  0  0  0  0  0  0  0  0  0
   -1.3710   -3.1050    0.0770 C   0  0  0  0  0  0  0  0  0  0  0  0
   -2.3820    0.0180   -0.4620 C   0  0  0  0  0  0  0  0  0  0  0  0
   -3.4550   -0.6450   -0.6500 O   0  0  0  0  0  0  0  0  0  0  0  0
   -2.1330    1.3320   -0.8620 N   0  0  0  0  0  0  0  0  0  0  0  0
   -3.0560    2.2040   -1.5800 C   0  0  0  0  0  0  0  0  0  0  0  0
   -3.8760    2.9590   -0.5860 C   0  0  1  0  0  0  0  0  0  0  0  0
   -4.8680    3.8210   -1.3450 C   0  0  0  0  0  0  0  0  0  0  0  0
   -6.0650    3.7840   -0.4180 C   0  0  0  0  0  0  0  0  0  0  0  0
   -5.5150    3.1060    0.8110 C   0  0  0  0  0  0  0  0  0  0  0  0
   -4.6370    2.1570    0.2490 O   0  0  0  0  0  0  0  0  0  0  0  0
   -0.7980    1.6000   -0.4170 C   0  0  0  0  0  0  0  0  0  0  0  0
   -0.2650    2.7160   -0.6240 O   0  0  0  0  0  0  0  0  0  0  0  0
    1.5940   -0.9680    1.3940 C   0  0  0  0  0  0  0  0  0  0  0  0
    3.1010   -0.9770    1.3130 C   0  0  0  0  0  0  0  0  0  0  0  0
    3.7500   -1.9800    0.8850 O   0  0  0  0  0  0  0  0  0  0  0  0
    3.7860    0.1850    1.7390 N   0  0  0  0  0  0  0  0  0  0  0  0
  1  2  1  0
  2  3  2  3
  3  4  1  0
  4  5  1  0
  6  5  1  6
  6  7  1  0
  6 35  1  0
  7  8  2  0
  8  9  1  0
  8 32  1  0
  9 10  2  0
  9 30  1  0
 10 11  1  0
 10 21  1  0
 11 12  2  0
 11 20  1  0
 12 13  1  0
 13 14  1  0
 14 15  2  0
 14 20  1  0
 15 16  1  0
 16 17  1  0
 16 18  2  0
 18 19  1  0
 19 20  2  0
 21 22  2  0
 21 23  1  0
 23 24  1  0
 23 30  1  0
 25 24  1  6
 25 26  1  0
 25 29  1  0
 26 27  1  0
 27 28  1  0
 28 29  1  0
 30 31  2  0
 32 33  1  0
 33 34  2  0
 33 35  1  0
M  END
