
     RDKit          3D

 10 10  0  0  0  0  0  0  0  0999 V2000
   -1.3510   -1.6550    0.0200 N   0  0  0  0  0  0  0  0  0  0  0  0
   -0.6920   -0.3710   -0.2670 C   0  0  1  0  0  0  0  0  0  0  0  0
   -1.7480    0.6760   -0.1000 C   0  0  0  0  0  0  0  0  0  0  0  0
   -1.3460    1.9280    0.1980 C   0  0  0  0  0  0  0  0  0  0  0  0
    0.1470    2.0870    0.3210 C   0  0  0  0  0  0  0  0  0  0  0  0
    0.5480    1.0820    1.1960 O   0  0  0  0  0  0  0  0  0  0  0  0
    0.5020   -0.1650    0.5990 C   0  0  2  0  0  0  0  0  0  0  0  0
    1.8110   -0.5080   -0.0670 C   0  0  1  0  0  0  0  0  0  0  0  0
    1.7330   -1.7650   -0.6560 O   0  0  0  0  0  0  0  0  0  0  0  0
    2.2840    0.4480   -0.9260 O   0  0  0  0  0  0  0  0  0  0  0  0
  2  1  1  1
  2  3  1  0
  2  7  1  0
  3  4  2  0
  4  5  1  0
  5  6  1  0
  7  6  1  6
  7  8  1  0
  8  9  1  6
  8 10  1  0
M  CHG  1   1   1
M  END
