
     RDKit          3D

 25 27  0  0  0  0  0  0  0  0999 V2000
   -4.4220   -0.6090   -2.7580 C   0  0  0  0  0  0  0  0  0  0  0  0
   -4.3480   -0.5670   -1.2620 C   0  0  0  0  0  0  0  0  0  0  0  0
   -5.3120   -1.1600   -0.4740 C   0  0  0  0  0  0  0  0  0  0  0  0
   -5.2620   -1.1330    0.9100 C   0  0  0  0  0  0  0  0  0  0  0  0
   -6.5070   -1.9000    1.8810 Cl  0  0  0  0  0  0  0  0  0  0  0  0
   -4.2200   -0.4950    1.5510 C   0  0  0  0  0  0  0  0  0  0  0  0
   -4.1360   -0.4480    3.0430 C   0  0  0  0  0  0  0  0  0  0  0  0
   -3.2560    0.0980    0.7630 C   0  0  0  0  0  0  0  0  0  0  0  0
   -2.1930    0.7490    1.3940 O   0  0  0  0  0  0  0  0  0  0  0  0
   -1.1950    1.3640    0.6440 C   0  0  0  0  0  0  0  0  0  0  0  0
   -1.3360    2.6840    0.2810 C   0  0  0  0  0  0  0  0  0  0  0  0
   -0.3130    3.2320   -0.4600 C   0  0  0  0  0  0  0  0  0  0  0  0
    0.7760    2.5340   -0.8230 N   0  0  0  0  0  0  0  0  0  0  0  0
    0.9590    1.2230   -0.4860 C   0  0  0  0  0  0  0  0  0  0  0  0
    2.1640    0.5380   -0.9160 C   0  0  0  0  0  0  0  0  0  0  0  0
    3.0160    1.1840   -1.5970 O   0  0  0  0  0  0  0  0  0  0  0  0
    2.4280   -0.8040   -0.6140 N   0  0  0  0  0  0  0  0  0  0  0  0
    3.6040   -1.5250   -1.0070 C   0  0  0  0  0  0  0  0  0  0  0  0
    4.8130   -0.9140   -0.4050 C   0  0  0  0  0  0  0  0  0  0  0  0
    4.9170    0.1110    0.4090 C   0  0  0  0  0  0  0  0  0  0  0  0
    6.3470    0.3760    0.7600 C   0  0  0  0  0  0  0  0  0  0  0  0
    7.0670   -0.6740    0.0100 C   0  0  0  0  0  0  0  0  0  0  0  0
    6.1750   -1.3930   -0.6440 C   0  0  0  0  0  0  0  0  0  0  0  0
   -0.0510    0.6530    0.2550 C   0  0  0  0  0  0  0  0  0  0  0  0
   -3.3070    0.0700   -0.6160 C   0  0  0  0  0  0  0  0  0  0  0  0
  1  2  1  0
  2  3  2  0
  2 25  1  0
  3  4  1  0
  4  5  1  0
  4  6  2  0
  6  7  1  0
  6  8  1  0
  8  9  1  0
  8 25  2  0
  9 10  1  0
 10 11  2  0
 10 24  1  0
 11 12  1  0
 12 13  2  0
 13 14  1  0
 14 15  1  0
 14 24  2  0
 15 16  2  0
 15 17  1  0
 17 18  1  0
 18 19  1  0
 19 20  2  0
 19 23  1  0
 20 21  1  0
 21 22  1  0
 22 23  2  0
M  END
