
     RDKit          3D

 25 27  0  0  0  0  0  0  0  0999 V2000
    2.6800    0.1580   -2.9450 C   0  0  0  0  0  0  0  0  0  0  0  0
    1.3760    0.0120   -2.2050 C   0  0  0  0  0  0  0  0  0  0  0  0
    0.2180    0.5270   -2.7460 C   0  0  0  0  0  0  0  0  0  0  0  0
   -0.9790    0.4260   -2.0450 C   0  0  0  0  0  0  0  0  0  0  0  0
   -1.0510   -0.1840   -0.8050 C   0  0  0  0  0  0  0  0  0  0  0  0
   -2.3100   -0.3480   -0.0540 C   0  0  0  0  0  0  0  0  0  0  0  0
   -2.7850    0.8060    0.7020 C   0  0  0  0  0  0  0  0  0  0  0  0
   -2.2460    1.1650    1.9040 C   0  0  0  0  0  0  0  0  0  0  0  0
   -1.1560    0.4110    2.5790 C   0  0  0  0  0  0  0  0  0  0  0  0
   -2.7590    2.2680    2.5780 C   0  0  0  0  0  0  0  0  0  0  0  0
   -3.7700    3.0120    2.1090 N   0  0  0  0  0  0  0  0  0  0  0  0
   -4.3120    2.6470    0.9020 C   0  0  0  0  0  0  0  0  0  0  0  0
   -3.8430    1.5650    0.1890 C   0  0  0  0  0  0  0  0  0  0  0  0
   -4.4720    1.2870   -1.1010 C   0  0  0  0  0  0  0  0  0  0  0  0
   -5.4760    2.0090   -1.4280 O   0  0  0  0  0  0  0  0  0  0  0  0
    0.1260   -0.7080   -0.2550 C   0  0  0  0  0  0  0  0  0  0  0  0
    1.3240   -0.5880   -0.9950 C   0  0  0  0  0  0  0  0  0  0  0  0
    2.4940   -1.2150   -0.3630 C   0  0  0  0  0  0  0  0  0  0  0  0
    2.8830   -2.4580   -0.6780 C   0  0  0  0  0  0  0  0  0  0  0  0
    3.9520   -3.0640   -0.0500 C   0  0  0  0  0  0  0  0  0  0  0  0
    4.6040   -2.3090    0.9210 C   0  0  0  0  0  0  0  0  0  0  0  0
    5.9930   -3.0920    1.6980 Cl  0  0  0  0  0  0  0  0  0  0  0  0
    4.2010   -1.0840    1.2130 N   0  0  0  0  0  0  0  0  0  0  0  0
    3.1620   -0.5120    0.5990 C   0  0  0  0  0  0  0  0  0  0  0  0
    2.8640    0.6470    0.9500 O   0  0  0  0  0  0  0  0  0  0  0  0
  1  2  1  0
  2  3  2  0
  2 17  1  0
  3  4  1  0
  4  5  2  0
  5  6  1  0
  5 16  1  0
  6  7  1  0
  7  8  2  0
  7 13  1  0
  8  9  1  0
  8 10  1  0
 10 11  2  0
 11 12  1  0
 12 13  2  0
 13 14  1  0
 14 15  2  0
 16 17  2  0
 17 18  1  0
 18 19  2  0
 18 24  1  0
 19 20  1  0
 20 21  2  0
 21 22  1  0
 21 23  1  0
 23 24  1  0
 24 25  2  0
M  END
