
     RDKit          3D

 25 27  0  0  0  0  0  0  0  0999 V2000
   -3.6770    2.9030    1.7010 C   0  0  0  0  0  0  0  0  0  0  0  0
   -3.3750    1.8470    0.7070 C   0  0  0  0  0  0  0  0  0  0  0  0
   -2.5280    2.0680   -0.3720 C   0  0  0  0  0  0  0  0  0  0  0  0
   -2.2560    1.0810   -1.2870 C   0  0  0  0  0  0  0  0  0  0  0  0
   -1.3550    1.3510   -2.4240 C   0  0  0  0  0  0  0  0  0  0  0  0
   -0.0270    1.3210   -2.0060 O   0  0  0  0  0  0  0  0  0  0  0  0
    0.6210    0.2560   -1.4410 C   0  0  0  0  0  0  0  0  0  0  0  0
    0.0100   -0.8070   -1.2610 O   0  0  0  0  0  0  0  0  0  0  0  0
    2.0270    0.3880   -1.0550 C   0  0  0  0  0  0  0  0  0  0  0  0
    2.6970    1.5820   -1.2620 C   0  0  0  0  0  0  0  0  0  0  0  0
    4.0220    1.6760   -0.8880 C   0  0  0  0  0  0  0  0  0  0  0  0
    4.6870    0.6080   -0.3160 C   0  0  0  0  0  0  0  0  0  0  0  0
    5.9700    0.4020    0.1480 C   0  0  0  0  0  0  0  0  0  0  0  0
    6.1040   -0.8820    0.6320 C   0  0  0  0  0  0  0  0  0  0  0  0
    7.3400   -1.4920    1.2210 C   0  0  0  0  0  0  0  0  0  0  0  0
    8.3330   -2.2700   -0.0130 Cl  0  0  0  0  0  0  0  0  0  0  0  0
    4.9040   -1.4650    0.4650 N   0  0  0  0  0  0  0  0  0  0  0  0
    4.0290   -0.5860   -0.1070 C   0  0  0  0  0  0  0  0  0  0  0  0
    2.7020   -0.6880   -0.4780 C   0  0  0  0  0  0  0  0  0  0  0  0
   -2.8290   -0.1550   -1.1420 C   0  0  0  0  0  0  0  0  0  0  0  0
   -3.6880   -0.4210   -0.0710 C   0  0  0  0  0  0  0  0  0  0  0  0
   -4.2740   -1.7080    0.0650 N   0  0  0  0  0  0  0  0  0  0  0  0
   -5.1620   -1.9680    1.1790 C   0  0  0  0  0  0  0  0  0  0  0  0
   -3.9760   -2.7390   -0.9100 C   0  0  0  0  0  0  0  0  0  0  0  0
   -3.9360    0.5960    0.8270 C   0  0  0  0  0  0  0  0  0  0  0  0
  1  2  1  0
  2  3  2  0
  2 25  1  0
  3  4  1  0
  4  5  1  0
  4 20  2  0
  5  6  1  0
  6  7  1  0
  7  8  2  0
  7  9  1  0
  9 10  2  0
  9 19  1  0
 10 11  1  0
 11 12  2  0
 12 13  1  0
 12 18  1  0
 13 14  2  0
 14 15  1  0
 14 17  1  0
 15 16  1  0
 17 18  1  0
 18 19  2  0
 20 21  1  0
 21 22  1  0
 21 25  2  0
 22 23  1  0
 22 24  1  0
M  END
