
     RDKit          3D

 23 25  0  0  0  0  0  0  0  0999 V2000
   -5.7120    1.3160   -1.4230 N   0  0  0  0  0  0  0  0  0  0  0  0
   -4.9430    0.4380   -0.6500 C   0  0  0  0  0  0  0  0  0  0  0  0
   -5.4520   -0.6230   -0.0430 N   0  0  0  0  0  0  0  0  0  0  0  0
   -4.7310   -1.4950    0.7130 C   0  0  0  0  0  0  0  0  0  0  0  0
   -3.4190   -1.2340    0.8540 N   0  0  0  0  0  0  0  0  0  0  0  0
   -2.7930   -0.2010    0.2900 C   0  0  0  0  0  0  0  0  0  0  0  0
   -3.5930    0.6400   -0.4800 C   0  0  0  0  0  0  0  0  0  0  0  0
   -2.7420    1.6130   -0.9040 N   0  0  0  0  0  0  0  0  0  0  0  0
   -1.5290    1.3330   -0.4350 C   0  0  0  0  0  0  0  0  0  0  0  0
   -1.5380    0.2580    0.3020 N   0  0  0  0  0  0  0  0  0  0  0  0
   -0.3570   -0.2430    1.0530 C   0  0  2  0  0  0  0  0  0  0  0  0
    0.7330    0.5430    0.5890 O   0  0  0  0  0  0  0  0  0  0  0  0
    1.6920   -0.3610    0.2620 C   0  0  2  0  0  0  0  0  0  0  0  0
    2.7340    0.1830   -0.7210 C   0  0  0  0  0  0  0  0  0  0  0  0
    3.0820    1.3900   -0.0330 O   0  0  0  0  0  0  0  0  0  0  0  0
    4.6620    1.4320    0.2970 S   0  0  2  0  0  0  0  0  0  0  0  0
    5.7680    2.4140   -0.4280 N   0  0  0  0  0  0  0  0  0  0  0  0
    5.1900   -0.0230    0.1800 O   0  0  0  0  0  0  0  0  0  0  0  0
    4.7230    1.7040    1.8610 O   0  0  0  0  0  0  0  0  0  0  0  0
    1.1210   -1.6820   -0.0760 C   0  0  1  0  0  0  0  0  0  0  0  0
    2.0620   -2.6990    0.2320 O   0  0  0  0  0  0  0  0  0  0  0  0
   -0.0360   -1.6860    0.9300 C   0  0  1  0  0  0  0  0  0  0  0  0
    0.5900   -2.0900    2.1540 O   0  0  0  0  0  0  0  0  0  0  0  0
  1  2  1  0
  2  3  2  0
  2  7  1  0
  3  4  1  0
  4  5  2  0
  5  6  1  0
  6  7  2  0
  6 10  1  0
  7  8  1  0
  8  9  2  0
  9 10  1  0
 11 10  1  6
 11 12  1  0
 11 22  1  0
 12 13  1  0
 13 14  1  6
 13 20  1  0
 14 15  1  0
 15 16  1  0
 16 17  1  6
 16 18  2  0
 16 19  2  0
 20 21  1  1
 20 22  1  0
 22 23  1  1
M  END
