
     RDKit          3D

 10 10  0  0  0  0  0  0  0  0999 V2000
   -2.0680    0.5770   -0.7640 N   0  0  0  0  0  0  0  0  0  0  0  0
   -1.3840   -0.5920   -0.2550 C   0  0  2  0  0  0  0  0  0  0  0  0
   -1.4670   -0.5800    1.2440 C   0  0  0  0  0  0  0  0  0  0  0  0
   -0.2280    0.0010    1.8930 C   0  0  0  0  0  0  0  0  0  0  0  0
    0.3310    0.8860    0.9410 O   0  0  0  0  0  0  0  0  0  0  0  0
    1.0190    0.0810    0.0390 C   0  0  2  0  0  0  0  0  0  0  0  0
    1.9020   -0.7330    0.7470 O   0  0  0  0  0  0  0  0  0  0  0  0
    1.8590    0.9010   -0.9210 C   0  0  0  0  0  0  0  0  0  0  0  0
    2.4930   -0.0260   -1.7670 O   0  0  0  0  0  0  0  0  0  0  0  0
    0.0230   -0.7210   -0.7690 C   0  0  0  0  0  0  0  0  0  0  0  0
  2  1  1  6
  2  3  1  0
  2 10  1  0
  3  4  1  0
  4  5  1  0
  5  6  1  0
  6  7  1  1
  6  8  1  0
  6 10  1  0
  8  9  1  0
M  CHG  1   1   1
M  END
