
     RDKit          3D

 27 29  0  0  0  0  0  0  0  0999 V2000
    6.7620   -1.9280   -0.5670 C   0  0  0  0  0  0  0  0  0  0  0  0
    5.9550   -0.7580   -0.1550 C   0  0  0  0  0  0  0  0  0  0  0  0
    4.7300   -0.8850    0.2880 C   0  0  0  0  0  0  0  0  0  0  0  0
    4.0260    0.3300    0.6660 C   0  0  0  0  0  0  0  0  0  0  0  0
    2.7900    0.2830    1.1210 C   0  0  0  0  0  0  0  0  0  0  0  0
    2.0990    1.4970    1.4940 C   0  0  0  0  0  0  0  0  0  0  0  0
    2.7020    2.6000    1.3820 O   0  0  0  0  0  0  0  0  0  0  0  0
    0.7280    1.5310    2.0020 C   0  0  0  0  0  0  0  0  0  0  0  0
    0.1060    0.2540    1.9260 N   0  0  0  0  0  0  0  0  0  0  0  0
   -0.3710   -0.0870    0.6320 C   0  0  0  0  0  0  0  0  0  0  0  0
   -0.7880    1.0940   -0.2180 C   0  0  1  0  0  0  0  0  0  0  0  0
   -1.2460    0.4720   -1.5490 C   0  0  0  0  0  0  0  0  0  0  0  0
   -2.5900   -0.0810   -1.3930 N   0  0  0  0  0  0  0  0  0  0  0  0
   -2.9470   -1.3880   -1.8590 C   0  0  0  0  0  0  0  0  0  0  0  0
   -4.4050   -1.6270   -2.0100 C   0  0  0  0  0  0  0  0  0  0  0  0
   -5.2210   -0.5020   -1.9150 O   0  0  0  0  0  0  0  0  0  0  0  0
   -4.9270    0.5110   -1.0120 C   0  0  0  0  0  0  0  0  0  0  0  0
   -5.9030    1.2700   -0.4040 C   0  0  0  0  0  0  0  0  0  0  0  0
   -5.4930    2.2470    0.4740 C   0  0  0  0  0  0  0  0  0  0  0  0
   -4.1340    2.4580    0.7380 C   0  0  0  0  0  0  0  0  0  0  0  0
   -3.1660    1.7000    0.1320 C   0  0  0  0  0  0  0  0  0  0  0  0
   -3.5750    0.7180   -0.7510 C   0  0  0  0  0  0  0  0  0  0  0  0
   -1.8130    1.8600    0.3500 O   0  0  0  0  0  0  0  0  0  0  0  0
    4.0560   -2.1710    0.4160 C   0  0  1  0  0  0  0  0  0  0  0  0
    2.8960   -2.2320   -0.3580 F   0  0  0  0  0  0  0  0  0  0  0  0
    4.8590   -3.2100    0.0580 F   0  0  0  0  0  0  0  0  0  0  0  0
    3.6720   -2.4260    1.7440 F   0  0  0  0  0  0  0  0  0  0  0  0
  1  2  1  0
  2  3  2  3
  3  4  1  0
  3 24  1  0
  4  5  2  3
  5  6  1  0
  6  7  2  0
  6  8  1  0
  8  9  1  0
  9 10  1  0
 11 10  1  1
 11 12  1  0
 11 23  1  0
 12 13  1  0
 13 14  1  0
 13 22  1  0
 14 15  1  0
 15 16  1  0
 16 17  1  0
 17 18  1  0
 17 22  2  0
 18 19  2  0
 19 20  1  0
 20 21  2  0
 21 22  1  0
 21 23  1  0
 24 25  1  6
 24 26  1  0
 24 27  1  0
M  CHG  1   9   1
M  END
