
     RDKit          3D

 27 28  0  0  0  0  0  0  0  0999 V2000
    3.3290   -1.2210   -1.3950 C   0  0  0  0  0  0  0  0  0  0  0  0
    2.8290   -1.4920   -0.2210 C   0  0  0  0  0  0  0  0  0  0  0  0
    3.9890   -2.0030    0.6490 C   0  0  0  0  0  0  0  0  0  0  0  0
    5.1480   -2.2140    0.1950 N   0  0  0  0  0  0  0  0  0  0  0  0
    1.6780   -1.0690    0.5170 C   0  0  0  0  0  0  0  0  0  0  0  0
    1.3470   -1.8780    1.5630 C   0  0  0  0  0  0  0  0  0  0  0  0
    1.8940   -3.0940    2.0770 C   0  0  2  0  0  0  0  0  0  0  0  0
    0.6710   -3.8860    2.4300 F   0  0  0  0  0  0  0  0  0  0  0  0
    2.5050   -3.0730    3.3060 F   0  0  0  0  0  0  0  0  0  0  0  0
    2.4380   -3.9590    1.1650 F   0  0  0  0  0  0  0  0  0  0  0  0
    0.6920    0.0030    0.2910 C   0  0  0  0  0  0  0  0  0  0  0  0
    0.8510    1.0290   -0.4780 C   0  0  0  0  0  0  0  0  0  0  0  0
    2.0880    1.3230   -1.2360 C   0  0  0  0  0  0  0  0  0  0  0  0
    2.2560    2.8970   -1.1790 C   0  0  0  0  0  0  0  0  0  0  0  0
    1.1950    3.4340   -2.1500 C   0  0  0  0  0  0  0  0  0  0  0  0
   -0.1180    3.0130   -1.5390 C   0  0  0  0  0  0  0  0  0  0  0  0
   -0.2620    1.9590   -0.8050 C   0  0  0  0  0  0  0  0  0  0  0  0
   -1.5770    1.6340   -0.2080 C   0  0  0  0  0  0  0  0  0  0  0  0
   -2.5250    2.4140   -0.4740 O   0  0  0  0  0  0  0  0  0  0  0  0
   -1.7250    0.5000    0.6150 N   0  0  0  0  0  0  0  0  0  0  0  0
   -3.0330    0.0660    0.9860 C   0  0  1  0  0  0  0  0  0  0  0  0
   -3.8190    1.0890    1.7630 C   0  0  0  0  0  0  0  0  0  0  0  0
   -3.8690   -0.3250   -0.1850 C   0  0  0  0  0  0  0  0  0  0  0  0
   -3.4640   -0.2770   -1.3700 O   0  0  0  0  0  0  0  0  0  0  0  0
   -5.1570   -0.7630    0.0440 O   0  0  0  0  0  0  0  0  0  0  0  0
   -6.0410   -1.1600   -0.9890 C   0  0  0  0  0  0  0  0  0  0  0  0
   -0.5810   -0.2120    1.0760 C   0  0  0  0  0  0  0  0  0  0  0  0
  1  2  2  0
  2  3  1  0
  2  5  1  0
  3  4  2  0
  5  6  2  3
  5 11  1  0
  6  7  1  0
  7  8  1  1
  7  9  1  0
  7 10  1  0
 11 12  2  0
 11 27  1  0
 12 13  1  0
 12 17  1  0
 13 14  1  0
 14 15  1  0
 15 16  1  0
 16 17  2  0
 17 18  1  0
 18 19  2  0
 18 20  1  0
 20 21  1  0
 20 27  1  0
 21 22  1  6
 21 23  1  0
 23 24  2  0
 23 25  1  0
 25 26  1  0
M  CHG  1   4   1
M  END
