
     RDKit          3D

 27 28  0  0  0  0  0  0  0  0999 V2000
   -1.1370   -3.2670    1.4880 C   0  0  0  0  0  0  0  0  0  0  0  0
   -0.7110   -2.4950    0.3540 O   0  0  0  0  0  0  0  0  0  0  0  0
   -0.1410   -1.2300    0.5440 C   0  0  0  0  0  0  0  0  0  0  0  0
    1.1910   -1.3070    0.7010 C   0  0  0  0  0  0  0  0  0  0  0  0
    1.7870   -2.7240    0.6360 C   0  0  0  0  0  0  0  0  0  0  0  0
    2.1720   -0.2610    0.9500 C   0  0  0  0  0  0  0  0  0  0  0  0
    3.1600   -0.1710   -0.1360 N   0  0  0  0  0  0  0  0  0  0  0  0
    3.8840    1.0830   -0.0830 C   0  0  2  0  0  0  0  0  0  0  0  0
    3.8490    1.8180   -1.3930 C   0  0  0  0  0  0  0  0  0  0  0  0
    5.2640    1.8360   -1.9320 C   0  0  0  0  0  0  0  0  0  0  0  0
    5.8550    0.5940   -1.2560 C   0  0  0  0  0  0  0  0  0  0  0  0
    5.3730    0.8210    0.1810 C   0  0  0  0  0  0  0  0  0  0  0  0
   -0.8590   -0.0380    0.5850 C   0  0  0  0  0  0  0  0  0  0  0  0
    0.0240    1.0720    0.8780 F   0  0  0  0  0  0  0  0  0  0  0  0
   -2.0870    0.3970    0.4270 C   0  0  0  0  0  0  0  0  0  0  0  0
   -2.4580    1.8390    0.6040 C   0  0  0  0  0  0  0  0  0  0  0  0
   -1.6480    2.7770    0.8780 O   0  0  0  0  0  0  0  0  0  0  0  0
   -3.8370    2.0040    0.4210 N   0  0  0  0  0  0  0  0  0  0  0  0
   -4.5300    3.2990    0.5290 C   0  0  0  0  0  0  0  0  0  0  0  0
   -4.4680    0.7480    0.1170 C   0  0  0  0  0  0  0  0  0  0  0  0
   -5.7620    0.6420   -0.0730 C   0  0  0  0  0  0  0  0  0  0  0  0
   -6.5390    1.8580    0.0360 O   0  0  0  0  0  0  0  0  0  0  0  0
   -6.5250   -0.3980   -0.3530 F   0  0  0  0  0  0  0  0  0  0  0  0
   -3.3640   -0.2490    0.1110 C   0  0  0  0  0  0  0  0  0  0  0  0
   -3.5120   -1.4160   -0.4440 C   0  0  0  0  0  0  0  0  0  0  0  0
   -4.6640   -2.2250   -0.8020 C   0  0  0  0  0  0  0  0  0  0  0  0
   -2.3340   -1.8930   -1.0620 F   0  0  0  0  0  0  0  0  0  0  0  0
  1  2  1  0
  2  3  1  0
  3  4  2  3
  3 13  1  0
  4  5  1  0
  4  6  1  0
  6  7  1  0
  8  7  1  6
  8  9  1  0
  8 12  1  0
  9 10  1  0
 10 11  1  0
 11 12  1  0
 13 14  1  0
 13 15  2  3
 15 16  1  0
 15 24  1  0
 16 17  2  0
 16 18  1  0
 18 19  1  0
 18 20  1  0
 20 21  2  3
 20 24  1  0
 21 22  1  0
 21 23  1  0
 24 25  2  3
 25 26  1  0
 25 27  1  0
M  CHG  1   7   1
M  END
