
     RDKit          3D

 24 26  0  0  0  0  0  0  0  0999 V2000
   -5.9570    1.8000    0.5110 N   0  0  0  0  0  0  0  0  0  0  0  0
   -4.9290    0.9990   -0.0350 C   0  0  0  0  0  0  0  0  0  0  0  0
   -5.0600    0.3470   -1.2010 N   0  0  0  0  0  0  0  0  0  0  0  0
   -4.0880   -0.4180   -1.7300 C   0  0  0  0  0  0  0  0  0  0  0  0
   -4.3090   -1.2540   -3.2660 Cl  0  0  0  0  0  0  0  0  0  0  0  0
   -2.9370   -0.5430   -1.0740 N   0  0  0  0  0  0  0  0  0  0  0  0
   -2.7240    0.0680    0.0880 C   0  0  0  0  0  0  0  0  0  0  0  0
   -3.7160    0.8460    0.6210 C   0  0  0  0  0  0  0  0  0  0  0  0
   -3.2410    1.3250    1.7640 N   0  0  0  0  0  0  0  0  0  0  0  0
   -1.9910    0.8620    1.9380 C   0  0  0  0  0  0  0  0  0  0  0  0
   -1.6660    0.0780    0.8950 N   0  0  0  0  0  0  0  0  0  0  0  0
   -0.3980   -0.5800    0.7640 C   0  0  2  0  0  0  0  0  0  0  0  0
    0.6750    0.3420    0.7990 O   0  0  0  0  0  0  0  0  0  0  0  0
    1.7320   -0.5160    0.6040 C   0  0  2  0  0  0  0  0  0  0  0  0
    3.0640    0.1560    0.5190 C   0  0  0  0  0  0  0  0  0  0  0  0
    3.1730    1.0660   -0.5070 O   0  0  0  0  0  0  0  0  0  0  0  0
    4.7220    1.7170   -0.4500 S   0  0  1  0  0  0  0  0  0  0  0  0
    5.9050    0.5270   -0.8880 N   0  0  0  0  0  0  0  0  0  0  0  0
    4.8580    2.9440   -1.2820 O   0  0  0  0  0  0  0  0  0  0  0  0
    5.0350    2.1140    0.9810 O   0  0  0  0  0  0  0  0  0  0  0  0
    1.3490   -1.2670   -0.6410 C   0  0  1  0  0  0  0  0  0  0  0  0
    1.7960   -2.5870   -0.5040 O   0  0  0  0  0  0  0  0  0  0  0  0
   -0.1790   -1.2410   -0.5480 C   0  0  1  0  0  0  0  0  0  0  0  0
   -0.6910   -2.5340   -0.5570 O   0  0  0  0  0  0  0  0  0  0  0  0
  1  2  1  0
  2  3  2  0
  2  8  1  0
  3  4  1  0
  4  5  1  0
  4  6  2  0
  6  7  1  0
  7  8  2  0
  7 11  1  0
  8  9  1  0
  9 10  2  0
 10 11  1  0
 12 11  1  6
 12 13  1  0
 12 23  1  0
 13 14  1  0
 14 15  1  6
 14 21  1  0
 15 16  1  0
 16 17  1  0
 17 18  1  6
 17 19  2  0
 17 20  2  0
 21 22  1  1
 21 23  1  0
 23 24  1  1
M  END
