
     RDKit          3D

 27 29  0  0  0  0  0  0  0  0999 V2000
    2.0170    0.9700   -1.5270 C   0  0  0  0  0  0  0  0  0  0  0  0
    2.5940   -0.0340   -0.8530 C   0  0  0  0  0  0  0  0  0  0  0  0
    2.5090   -0.1790    0.5590 C   0  0  0  0  0  0  0  0  0  0  0  0
    1.6810    0.6000    1.4760 C   0  0  0  0  0  0  0  0  0  0  0  0
    0.2740    0.4540    1.3950 N   0  0  0  0  0  0  0  0  0  0  0  0
   -0.3060   -0.7000    2.0870 C   0  0  0  0  0  0  0  0  0  0  0  0
    0.3930   -1.1570    3.0270 O   0  0  0  0  0  0  0  0  0  0  0  0
   -1.5740   -1.3870    1.8340 C   0  0  0  0  0  0  0  0  0  0  0  0
   -2.0510   -1.3130    0.4500 N   0  0  0  0  0  0  0  0  0  0  0  0
   -2.4910   -2.6070   -0.0330 C   0  0  0  0  0  0  0  0  0  0  0  0
   -3.5120   -2.5260   -1.1170 C   0  0  0  0  0  0  0  0  0  0  0  0
   -3.3950   -1.3770   -2.0470 C   0  0  0  0  0  0  0  0  0  0  0  0
   -2.7380   -0.1790   -1.5330 C   0  0  0  0  0  0  0  0  0  0  0  0
   -2.7640    0.9900   -2.2840 F   0  0  0  0  0  0  0  0  0  0  0  0
   -2.1230   -0.1660   -0.3800 C   0  0  0  0  0  0  0  0  0  0  0  0
   -1.5470    1.1630   -0.0680 C   0  0  0  0  0  0  0  0  0  0  0  0
   -0.4850    1.4230    0.7230 C   0  0  0  0  0  0  0  0  0  0  0  0
   -0.1920    2.8190    0.8740 C   0  0  0  0  0  0  0  0  0  0  0  0
    0.7170    3.2580    1.5840 O   0  0  0  0  0  0  0  0  0  0  0  0
   -0.9450    3.7990    0.2000 O   0  0  0  0  0  0  0  0  0  0  0  0
   -0.6530    5.1740    0.3490 C   0  0  0  0  0  0  0  0  0  0  0  0
    3.2770   -1.1190    1.1390 C   0  0  0  0  0  0  0  0  0  0  0  0
    4.1490   -1.9780    0.3830 C   0  0  0  0  0  0  0  0  0  0  0  0
    4.2170   -1.8900   -0.9230 C   0  0  0  0  0  0  0  0  0  0  0  0
    3.4240   -0.9390   -1.7160 C   0  0  2  0  0  0  0  0  0  0  0  0
    4.3070   -0.1550   -2.4730 F   0  0  0  0  0  0  0  0  0  0  0  0
    2.5930   -1.6590   -2.5620 F   0  0  0  0  0  0  0  0  0  0  0  0
  1  2  2  0
  2  3  1  0
  2 25  1  0
  3  4  1  0
  3 22  2  0
  4  5  1  0
  5  6  1  0
  5 17  1  0
  6  7  2  0
  6  8  1  0
  8  9  1  0
  9 10  1  0
  9 15  1  0
 10 11  1  0
 11 12  1  0
 12 13  1  0
 13 14  1  0
 13 15  2  0
 15 16  1  0
 16 17  2  0
 17 18  1  0
 18 19  2  0
 18 20  1  0
 20 21  1  0
 22 23  1  0
 23 24  2  0
 24 25  1  0
 25 26  1  6
 25 27  1  0
M  END
