
     RDKit          3D

 27 29  0  0  0  0  0  0  0  0999 V2000
    7.8970   -0.2230   -0.1260 C   0  0  0  0  0  0  0  0  0  0  0  0
    6.6070   -0.4190    0.6610 C   0  0  0  0  0  0  0  0  0  0  0  0
    5.8780    0.8470    0.6170 N   0  0  0  0  0  0  0  0  0  0  0  0
    4.4600    0.5560    0.6930 C   0  0  0  0  0  0  0  0  0  0  0  0
    3.8680    0.4130   -0.7120 C   0  0  0  0  0  0  0  0  0  0  0  0
    2.4140    0.1180   -0.5530 C   0  0  0  0  0  0  0  0  0  0  0  0
    1.9460   -1.0920   -0.7330 O   0  0  0  0  0  0  0  0  0  0  0  0
    0.6730   -1.3810   -0.6010 C   0  0  0  0  0  0  0  0  0  0  0  0
    0.3050   -2.5620   -0.7910 O   0  0  0  0  0  0  0  0  0  0  0  0
   -0.2890   -0.4360   -0.2600 C   0  0  0  0  0  0  0  0  0  0  0  0
   -1.6430   -0.7230   -0.1160 N   0  0  0  0  0  0  0  0  0  0  0  0
   -2.1050   -1.9430    0.4780 C   0  0  0  0  0  0  0  0  0  0  0  0
   -3.3540   -1.8090    1.2670 C   0  0  0  0  0  0  0  0  0  0  0  0
   -4.3470   -0.8470    0.7740 C   0  0  0  0  0  0  0  0  0  0  0  0
   -4.0030    0.1410   -0.1010 C   0  0  0  0  0  0  0  0  0  0  0  0
   -4.9550    1.0690   -0.5630 C   0  0  0  0  0  0  0  0  0  0  0  0
   -6.2540    0.9640   -0.1140 C   0  0  0  0  0  0  0  0  0  0  0  0
   -7.2850    1.9040   -0.5620 C   0  0  0  0  0  0  0  0  0  0  0  0
   -6.6170   -0.0310    0.7720 C   0  0  0  0  0  0  0  0  0  0  0  0
   -7.8850   -0.1680    1.2380 F   0  0  0  0  0  0  0  0  0  0  0  0
   -5.6640   -0.9470    1.2240 C   0  0  0  0  0  0  0  0  0  0  0  0
   -5.9610   -1.9270    2.0820 F   0  0  0  0  0  0  0  0  0  0  0  0
   -2.6170    0.2290   -0.5760 C   0  0  0  0  0  0  0  0  0  0  0  0
   -2.3470    1.1550   -1.3790 O   0  0  0  0  0  0  0  0  0  0  0  0
    0.1590    0.8660   -0.0580 C   0  0  0  0  0  0  0  0  0  0  0  0
    1.5060    1.0950   -0.2140 C   0  0  0  0  0  0  0  0  0  0  0  0
    1.9740    2.3520   -0.0220 F   0  0  0  0  0  0  0  0  0  0  0  0
  1  2  1  0
  2  3  1  0
  3  4  1  0
  4  5  1  0
  5  6  1  0
  6  7  1  0
  6 26  2  0
  7  8  1  0
  8  9  2  0
  8 10  1  0
 10 11  1  0
 10 25  2  0
 11 12  1  0
 11 23  1  0
 12 13  1  0
 13 14  1  0
 14 15  2  0
 14 21  1  0
 15 16  1  0
 15 23  1  0
 16 17  2  0
 17 18  1  0
 17 19  1  0
 19 20  1  0
 19 21  2  0
 21 22  1  0
 23 24  2  0
 25 26  1  0
 26 27  1  0
M  CHG  1   3   1
M  END
