
     RDKit          3D

 30 34  0  0  0  0  0  0  0  0999 V2000
   -5.7490    2.1160   -0.3930 O   0  0  0  0  0  0  0  0  0  0  0  0
   -6.4760    1.1570   -1.0830 C   0  0  0  0  0  0  0  0  0  0  0  0
   -6.0020   -0.2470   -0.7270 C   0  0  1  0  0  0  0  0  0  0  0  0
   -4.6820   -0.3810   -1.0530 O   0  0  0  0  0  0  0  0  0  0  0  0
   -4.0310   -1.0150   -0.0040 C   0  0  1  0  0  0  0  0  0  0  0  0
   -2.6050   -0.8010   -0.0430 N   0  0  0  0  0  0  0  0  0  0  0  0
   -1.6930   -1.7630    0.1130 C   0  0  0  0  0  0  0  0  0  0  0  0
   -0.4800   -1.1820    0.0130 N   0  0  0  0  0  0  0  0  0  0  0  0
   -0.6170    0.1340   -0.2040 C   0  0  0  0  0  0  0  0  0  0  0  0
    0.3000    1.1480   -0.3740 C   0  0  0  0  0  0  0  0  0  0  0  0
    1.6850    0.8550   -0.3300 N   0  0  0  0  0  0  0  0  0  0  0  0
    2.1950    0.2710    0.9150 C   0  0  0  0  0  0  0  0  0  0  0  0
    3.0120   -0.9430    0.5500 C   0  0  0  0  0  0  0  0  0  0  0  0
    4.0920   -0.4540   -0.3080 N   0  0  0  0  0  0  0  0  0  0  0  0
    5.4480   -0.4450    0.0910 C   0  0  0  0  0  0  0  0  0  0  0  0
    5.7480   -0.5990    1.4220 C   0  0  0  0  0  0  0  0  0  0  0  0
    7.0570   -0.6150    1.9070 C   0  0  0  0  0  0  0  0  0  0  0  0
    8.1040   -0.4710    1.0220 C   0  0  0  0  0  0  0  0  0  0  0  0
    7.8090   -0.3170   -0.3110 C   0  0  0  0  0  0  0  0  0  0  0  0
    6.4910   -0.3020   -0.7930 C   0  0  0  0  0  0  0  0  0  0  0  0
    3.6380    0.0380   -1.6120 C   0  0  0  0  0  0  0  0  0  0  0  0
    2.5740    1.0990   -1.4170 C   0  0  0  0  0  0  0  0  0  0  0  0
   -0.2150    2.3730   -0.5750 N   0  0  0  0  0  0  0  0  0  0  0  0
   -1.5390    2.6020   -0.6090 C   0  0  0  0  0  0  0  0  0  0  0  0
   -2.4310    1.6180   -0.4440 N   0  0  0  0  0  0  0  0  0  0  0  0
   -1.9840    0.3710   -0.2390 C   0  0  0  0  0  0  0  0  0  0  0  0
   -4.6850   -0.3720    1.1990 C   0  0  2  0  0  0  0  0  0  0  0  0
   -4.4750   -1.1000    2.3640 O   0  0  0  0  0  0  0  0  0  0  0  0
   -6.1500   -0.4610    0.7590 C   0  0  2  0  0  0  0  0  0  0  0  0
   -6.5450   -1.7760    1.0430 O   0  0  0  0  0  0  0  0  0  0  0  0
  1  2  1  0
  3  2  1  1
  3  4  1  0
  3 29  1  0
  4  5  1  0
  5  6  1  6
  5 27  1  0
  6  7  1  0
  6 26  1  0
  7  8  2  0
  8  9  1  0
  9 10  2  0
  9 26  1  0
 10 11  1  0
 10 23  1  0
 11 12  1  0
 11 22  1  0
 12 13  1  0
 13 14  1  0
 14 15  1  0
 14 21  1  0
 15 16  2  0
 15 20  1  0
 16 17  1  0
 17 18  2  0
 18 19  1  0
 19 20  2  0
 21 22  1  0
 23 24  2  0
 24 25  1  0
 25 26  2  0
 27 28  1  1
 27 29  1  0
 29 30  1  6
M  END
