
     RDKit          3D

 31 34  0  0  0  0  0  0  0  0999 V2000
   -0.6860   -0.1570   -2.7940 C   0  0  0  0  0  0  0  0  0  0  0  0
   -0.2230   -0.5770   -1.4330 C   0  0  0  0  0  0  0  0  0  0  0  0
    1.1230   -0.9410   -1.2530 C   0  0  0  0  0  0  0  0  0  0  0  0
    1.6140   -1.3370   -0.0350 C   0  0  0  0  0  0  0  0  0  0  0  0
    2.9470   -1.7340    0.2310 N   0  0  0  0  0  0  0  0  0  0  0  0
    3.9700   -1.9710   -0.7070 C   0  0  0  0  0  0  0  0  0  0  0  0
    3.7510   -1.8390   -1.9070 O   0  0  0  0  0  0  0  0  0  0  0  0
    5.3460   -2.3880   -0.2440 C   0  0  1  0  0  0  0  0  0  0  0  0
    6.4590   -2.2570   -1.7030 S   0  0  0  0  0  0  0  0  0  0  0  0
    6.8750   -0.4900   -1.4200 C   0  0  0  0  0  0  0  0  0  0  0  0
    6.7350   -0.4390    0.0670 C   0  0  0  0  0  0  0  0  0  0  0  0
    7.3640    0.5500    0.8620 C   0  0  0  0  0  0  0  0  0  0  0  0
    7.2250    0.5800    2.2050 C   0  0  0  0  0  0  0  0  0  0  0  0
    6.4490   -0.3810    2.8060 C   0  0  0  0  0  0  0  0  0  0  0  0
    5.8360   -1.3430    2.0350 C   0  0  0  0  0  0  0  0  0  0  0  0
    5.9730   -1.3870    0.6310 C   0  0  0  0  0  0  0  0  0  0  0  0
    0.6770   -1.3500    1.0110 C   0  0  0  0  0  0  0  0  0  0  0  0
   -0.6370   -0.9930    0.8290 C   0  0  0  0  0  0  0  0  0  0  0  0
   -1.5570   -1.0350    1.9870 C   0  0  0  0  0  0  0  0  0  0  0  0
   -1.1250   -0.5960   -0.3970 C   0  0  0  0  0  0  0  0  0  0  0  0
   -2.5350   -0.2080   -0.6100 C   0  0  0  0  0  0  0  0  0  0  0  0
   -2.7760    1.2620   -0.7150 C   0  0  0  0  0  0  0  0  0  0  0  0
   -4.2600    1.4250   -0.9300 C   0  0  0  0  0  0  0  0  0  0  0  0
   -4.7700    1.3250   -2.0840 O   0  0  0  0  0  0  0  0  0  0  0  0
   -5.1250    1.6860    0.1080 O   0  0  0  0  0  0  0  0  0  0  0  0
   -6.5190    1.8480   -0.0190 C   0  0  2  0  0  0  0  0  0  0  0  0
   -7.0730    3.0400    0.6980 C   0  0  0  0  0  0  0  0  0  0  0  0
   -8.5020    2.5610    0.9920 C   0  0  0  0  0  0  0  0  0  0  0  0
   -8.2550    1.2250    1.4260 O   0  0  0  0  0  0  0  0  0  0  0  0
   -7.1400    0.7230    0.7690 C   0  0  0  0  0  0  0  0  0  0  0  0
   -6.7640   -0.4700    0.8560 O   0  0  0  0  0  0  0  0  0  0  0  0
  1  2  1  0
  2  3  2  0
  2 20  1  0
  3  4  1  0
  4  5  1  0
  4 17  2  0
  5  6  1  0
  6  7  2  0
  8  6  1  6
  8  9  1  0
  8 16  1  0
  9 10  1  0
 10 11  1  0
 11 12  2  0
 11 16  1  0
 12 13  1  0
 13 14  2  0
 14 15  1  0
 15 16  2  0
 17 18  1  0
 18 19  1  0
 18 20  2  0
 20 21  1  0
 21 22  1  0
 22 23  1  0
 23 24  2  0
 23 25  1  0
 26 25  1  1
 26 27  1  0
 26 30  1  0
 27 28  1  0
 28 29  1  0
 29 30  1  0
 30 31  2  0
M  END
