
     RDKit          3D

 29 32  0  0  0  0  0  0  0  0999 V2000
    3.6120    3.0710   -1.5340 C   0  0  0  0  0  0  0  0  0  0  0  0
    2.7070    2.0530   -0.9120 N   0  0  0  0  0  0  0  0  0  0  0  0
    1.9560    2.5160    0.1880 C   0  0  0  0  0  0  0  0  0  0  0  0
    0.6800    2.8220    0.4560 C   0  0  0  0  0  0  0  0  0  0  0  0
   -0.5240    2.8200   -0.2710 N   0  0  0  0  0  0  0  0  0  0  0  0
   -1.6730    2.0580   -0.3680 N   0  0  0  0  0  0  0  0  0  0  0  0
   -2.6960    1.5400    0.4970 C   0  0  0  0  0  0  0  0  0  0  0  0
   -3.9370    2.1210    0.8040 N   0  0  0  0  0  0  0  0  0  0  0  0
   -4.6480    1.3640    1.5700 N   0  0  0  0  0  0  0  0  0  0  0  0
   -3.9840    0.2280    1.8500 C   0  0  0  0  0  0  0  0  0  0  0  0
   -2.8260    0.3870    1.1890 C   0  0  0  0  0  0  0  0  0  0  0  0
   -1.9450   -0.7630    1.4040 C   0  0  1  0  0  0  0  0  0  0  0  0
   -0.6390   -0.0130    1.7190 C   0  0  0  0  0  0  0  0  0  0  0  0
   -2.5620   -1.3630    2.5740 C   0  0  0  0  0  0  0  0  0  0  0  0
   -4.0190   -1.1040    2.5210 C   0  0  0  0  0  0  0  0  0  0  0  0
   -1.7550   -1.5370    0.1780 C   0  0  0  0  0  0  0  0  0  0  0  0
   -0.6620   -2.5490    0.0430 C   0  0  0  0  0  0  0  0  0  0  0  0
   -0.9260   -3.4610    0.9150 O   0  0  0  0  0  0  0  0  0  0  0  0
    0.3910   -2.4440   -0.8740 N   0  0  0  0  0  0  0  0  0  0  0  0
    1.7380   -2.8600   -1.0600 C   0  0  0  0  0  0  0  0  0  0  0  0
    2.6440   -1.7440   -1.6970 C   0  0  0  0  0  0  0  0  0  0  0  0
    2.1010   -0.4480   -1.1000 C   0  0  2  0  0  0  0  0  0  0  0  0
    2.4650   -0.5460    0.2860 C   0  0  1  0  0  0  0  0  0  0  0  0
    2.0320   -1.6030    1.0540 F   0  0  0  0  0  0  0  0  0  0  0  0
    3.8460   -0.9080    0.2830 F   0  0  0  0  0  0  0  0  0  0  0  0
    0.8360   -0.3360   -1.8080 C   0  0  0  0  0  0  0  0  0  0  0  0
    0.1270   -1.6250   -2.1250 C   0  0  0  0  0  0  0  0  0  0  0  0
    2.8190    0.7990   -1.5770 C   0  0  0  0  0  0  0  0  0  0  0  0
    3.4830    0.5300   -2.5980 O   0  0  0  0  0  0  0  0  0  0  0  0
  1  2  1  0
  2  3  1  0
  2 28  1  0
  3  4  2  0
  4  5  1  0
  5  6  1  0
  6  7  1  0
  7  8  2  0
  7 11  1  0
  8  9  1  0
  9 10  1  0
 10 11  2  0
 10 15  1  0
 11 12  1  0
 12 13  1  1
 12 14  1  0
 12 16  1  0
 14 15  1  0
 16 17  1  0
 17 18  2  0
 17 19  1  0
 19 20  1  0
 19 27  1  0
 20 21  1  0
 21 22  1  0
 22 23  1  0
 22 26  1  1
 22 28  1  0
 23 24  1  6
 23 25  1  0
 26 27  1  0
 28 29  2  0
M  END
