
     RDKit          3D

 29 33  0  0  0  0  0  0  0  0999 V2000
    7.0790    0.4650   -0.6420 C   0  0  0  0  0  0  0  0  0  0  0  0
    5.6230    0.5780   -0.3090 C   0  0  0  0  0  0  0  0  0  0  0  0
    5.0500    1.5380    0.4380 N   0  0  0  0  0  0  0  0  0  0  0  0
    3.7180    1.3370    0.5380 C   0  0  0  0  0  0  0  0  0  0  0  0
    2.7010    1.9740    1.1450 N   0  0  0  0  0  0  0  0  0  0  0  0
    1.4090    1.5530    1.0910 C   0  0  0  0  0  0  0  0  0  0  0  0
    0.3220    2.2950    1.7510 C   0  0  2  0  0  0  0  0  0  0  0  0
    0.8170    3.6190    1.8770 F   0  0  0  0  0  0  0  0  0  0  0  0
    0.1670    1.9230    3.0780 F   0  0  0  0  0  0  0  0  0  0  0  0
    1.1370    0.4410    0.3950 N   0  0  0  0  0  0  0  0  0  0  0  0
    2.1510   -0.2260   -0.2330 C   0  0  0  0  0  0  0  0  0  0  0  0
    1.6650   -1.3050   -0.8670 N   0  0  0  0  0  0  0  0  0  0  0  0
    0.3490   -1.3130   -0.6340 C   0  0  0  0  0  0  0  0  0  0  0  0
   -0.0010   -0.2320    0.1540 C   0  0  0  0  0  0  0  0  0  0  0  0
   -1.3690    0.0090    0.6250 C   0  0  1  0  0  0  0  0  0  0  0  0
   -2.1190    0.6870   -0.5090 C   0  0  0  0  0  0  0  0  0  0  0  0
   -3.5600    0.8150   -0.0630 C   0  0  0  0  0  0  0  0  0  0  0  0
   -4.1820   -0.5630   -0.2490 C   0  0  2  0  0  0  0  0  0  0  0  0
   -3.0920   -1.6090   -0.2330 C   0  0  0  0  0  0  0  0  0  0  0  0
   -2.0450   -1.3600    0.7930 C   0  0  0  0  0  0  0  0  0  0  0  0
   -4.9210   -0.5460   -1.4710 N   0  0  0  0  0  0  0  0  0  0  0  0
   -6.2850   -0.2450   -1.2070 C   0  0  0  0  0  0  0  0  0  0  0  0
   -7.1920    0.1130   -2.0240 O   0  0  0  0  0  0  0  0  0  0  0  0
   -6.4470   -0.4310    0.2090 N   0  0  0  0  0  0  0  0  0  0  0  0
   -5.2130   -0.8320    0.7750 C   0  0  0  0  0  0  0  0  0  0  0  0
   -5.0220   -1.3160    1.9110 O   0  0  0  0  0  0  0  0  0  0  0  0
    3.4680    0.1900   -0.1880 C   0  0  0  0  0  0  0  0  0  0  0  0
    4.6460   -0.3020   -0.7270 C   0  0  0  0  0  0  0  0  0  0  0  0
    4.7950   -1.5200   -1.5730 C   0  0  0  0  0  0  0  0  0  0  0  0
  1  2  1  0
  2  3  1  0
  2 28  2  0
  3  4  1  0
  4  5  1  0
  4 27  2  0
  5  6  2  0
  6  7  1  0
  6 10  1  0
  7  8  1  1
  7  9  1  0
 10 11  1  0
 10 14  1  0
 11 12  2  0
 11 27  1  0
 12 13  1  0
 13 14  2  0
 15 14  1  6
 15 16  1  0
 15 20  1  0
 16 17  1  0
 18 17  1  1
 18 19  1  0
 18 21  1  0
 18 25  1  0
 19 20  1  0
 21 22  1  0
 22 23  2  0
 22 24  1  0
 24 25  1  0
 25 26  2  0
 27 28  1  0
 28 29  1  0
M  END
