
     RDKit          3D

 28 31  0  0  0  0  0  0  0  0999 V2000
   -1.8250    1.1450   -0.5610 O   0  0  0  0  0  0  0  0  0  0  0  0
   -1.6650    0.1470    0.2160 C   0  0  0  0  0  0  0  0  0  0  0  0
   -0.5220   -0.1910    0.8140 N   0  0  0  0  0  0  0  0  0  0  0  0
    0.6890    0.5280    0.6630 C   0  0  0  0  0  0  0  0  0  0  0  0
    0.9300    1.7360    1.2790 C   0  0  0  0  0  0  0  0  0  0  0  0
    2.1350    2.3780    1.0840 C   0  0  0  0  0  0  0  0  0  0  0  0
    3.1440    1.8560    0.2780 C   0  0  0  0  0  0  0  0  0  0  0  0
    2.8880    0.6470   -0.3310 C   0  0  0  0  0  0  0  0  0  0  0  0
    3.8840    0.0480   -1.1770 N   0  0  0  0  0  0  0  0  0  0  0  0
    5.1310    0.6630   -1.4080 C   0  0  0  0  0  0  0  0  0  0  0  0
    6.2570    0.3200   -0.8320 C   0  0  0  0  0  0  0  0  0  0  0  0
    7.5630    0.9790   -1.0870 C   0  0  0  0  0  0  0  0  0  0  0  0
    8.4930    0.4060   -0.3590 C   0  0  0  0  0  0  0  0  0  0  0  0
    7.9500   -0.6380    0.4180 N   0  0  0  0  0  0  0  0  0  0  0  0
    6.5290   -0.7120    0.1340 C   0  0  0  0  0  0  0  0  0  0  0  0
    5.7770   -1.5570    0.6870 N   0  0  0  0  0  0  0  0  0  0  0  0
    4.5200   -1.8350    0.6210 F   0  0  0  0  0  0  0  0  0  0  0  0
    1.6790    0.0010   -0.1360 C   0  0  0  0  0  0  0  0  0  0  0  0
   -0.7470   -1.2860    1.5430 C   0  0  0  0  0  0  0  0  0  0  0  0
   -2.0540   -1.5990    1.3690 N   0  0  0  0  0  0  0  0  0  0  0  0
   -2.6270   -0.7280    0.5580 N   0  0  0  0  0  0  0  0  0  0  0  0
   -3.9760   -0.6670    0.0980 C   0  0  1  0  0  0  0  0  0  0  0  0
   -4.6600   -1.9910   -0.0160 C   0  0  0  0  0  0  0  0  0  0  0  0
   -6.0330   -1.7700   -0.5920 C   0  0  0  0  0  0  0  0  0  0  0  0
   -6.2790   -0.3410   -0.9900 C   0  0  0  0  0  0  0  0  0  0  0  0
   -6.0220    0.6450    0.1020 C   0  0  1  0  0  0  0  0  0  0  0  0
   -7.1590    0.9290    0.8530 O   0  0  0  0  0  0  0  0  0  0  0  0
   -4.8570    0.2200    0.9800 C   0  0  0  0  0  0  0  0  0  0  0  0
  1  2  2  0
  2  3  1  0
  2 21  1  0
  3  4  1  0
  3 19  1  0
  4  5  2  0
  4 18  1  0
  5  6  1  0
  6  7  2  0
  7  8  1  0
  8  9  1  0
  8 18  2  0
  9 10  1  0
 10 11  2  3
 11 12  1  0
 11 15  1  0
 12 13  2  0
 13 14  1  0
 14 15  1  0
 15 16  2  3
 16 17  1  0
 19 20  2  0
 20 21  1  0
 22 21  1  1
 22 23  1  0
 22 28  1  0
 23 24  1  0
 24 25  1  0
 25 26  1  0
 26 27  1  1
 26 28  1  0
M  END
