
     RDKit          3D

 29 33  0  0  0  0  0  0  0  0999 V2000
   -1.5140    1.6250   -2.3980 O   0  0  0  0  0  0  0  0  0  0  0  0
   -2.1610    1.0730   -1.4400 C   0  0  0  0  0  0  0  0  0  0  0  0
   -3.3770    0.3690   -1.5830 N   0  0  0  0  0  0  0  0  0  0  0  0
   -3.8800    0.0370   -0.2900 C   0  0  2  0  0  0  0  0  0  0  0  0
   -4.2690   -1.4300   -0.2230 C   0  0  0  0  0  0  0  0  0  0  0  0
   -5.1710   -1.4360    1.0000 C   0  0  0  0  0  0  0  0  0  0  0  0
   -6.0370   -0.2170    0.7780 C   0  0  0  0  0  0  0  0  0  0  0  0
   -5.1440    0.7690    0.0830 C   0  0  0  0  0  0  0  0  0  0  0  0
   -2.7640    0.3540    0.6460 C   0  0  0  0  0  0  0  0  0  0  0  0
   -2.7550    0.0170    1.8670 O   0  0  0  0  0  0  0  0  0  0  0  0
   -1.7720    1.0720   -0.0730 N   0  0  0  0  0  0  0  0  0  0  0  0
   -0.6090    1.6660    0.5300 C   0  0  0  0  0  0  0  0  0  0  0  0
    0.4930    0.6300    0.5110 C   0  0  0  0  0  0  0  0  0  0  0  0
    0.2550   -0.5230    0.0050 N   0  0  0  0  0  0  0  0  0  0  0  0
    1.2200   -1.5360   -0.0520 C   0  0  0  0  0  0  0  0  0  0  0  0
    1.1060   -2.7790   -0.5520 N   0  0  0  0  0  0  0  0  0  0  0  0
    2.2790   -3.3860   -0.3900 C   0  0  0  0  0  0  0  0  0  0  0  0
    3.1170   -2.4600    0.2320 C   0  0  0  0  0  0  0  0  0  0  0  0
    2.4510   -1.3150    0.4390 N   0  0  0  0  0  0  0  0  0  0  0  0
    2.8350   -0.0530    1.0370 C   0  0  1  0  0  0  0  0  0  0  0  0
    4.0620    0.5320    0.4100 C   0  0  0  0  0  0  0  0  0  0  0  0
    4.0060    1.5020   -0.5690 C   0  0  0  0  0  0  0  0  0  0  0  0
    5.1730    2.0190   -1.1420 C   0  0  0  0  0  0  0  0  0  0  0  0
    5.0610    2.9740   -2.1030 F   0  0  0  0  0  0  0  0  0  0  0  0
    6.4010    1.5650   -0.7370 C   0  0  0  0  0  0  0  0  0  0  0  0
    6.4730    0.6010    0.2350 C   0  0  0  0  0  0  0  0  0  0  0  0
    5.3050    0.0970    0.7960 C   0  0  0  0  0  0  0  0  0  0  0  0
    5.4670   -0.8350    1.7510 F   0  0  0  0  0  0  0  0  0  0  0  0
    1.7630    0.9080    1.0340 N   0  0  0  0  0  0  0  0  0  0  0  0
  1  2  2  0
  2  3  1  0
  2 11  1  0
  3  4  1  0
  4  5  1  6
  4  8  1  0
  4  9  1  0
  5  6  1  0
  6  7  1  0
  7  8  1  0
  9 10  2  0
  9 11  1  0
 11 12  1  0
 12 13  1  0
 13 14  2  0
 13 29  1  0
 14 15  1  0
 15 16  2  0
 15 19  1  0
 16 17  1  0
 17 18  2  0
 18 19  1  0
 19 20  1  0
 20 21  1  6
 20 29  1  0
 21 22  2  0
 21 27  1  0
 22 23  1  0
 23 24  1  0
 23 25  2  0
 25 26  1  0
 26 27  2  0
 27 28  1  0
M  END
