
     RDKit          3D

 27 29  0  0  0  0  0  0  0  0999 V2000
   -3.1180    2.8560    0.8080 C   0  0  0  0  0  0  0  0  0  0  0  0
   -2.8200    1.4730    0.2880 C   0  0  0  0  0  0  0  0  0  0  0  0
   -1.4780    1.1710    0.0090 C   0  0  0  0  0  0  0  0  0  0  0  0
   -1.0910   -0.0520   -0.4420 C   0  0  0  0  0  0  0  0  0  0  0  0
    0.2250   -0.4210   -0.9330 C   0  0  0  0  0  0  0  0  0  0  0  0
    1.4370   -0.3340   -0.5910 C   0  0  0  0  0  0  0  0  0  0  0  0
    1.9890    0.2200    0.5510 N   0  0  0  0  0  0  0  0  0  0  0  0
    3.4170    0.5340    0.7630 C   0  0  1  0  0  0  0  0  0  0  0  0
    3.7580    0.5590    2.0800 O   0  0  0  0  0  0  0  0  0  0  0  0
    4.2430   -0.3160   -0.0970 C   0  0  2  0  0  0  0  0  0  0  0  0
    5.7000   -0.1500   -0.1610 C   0  0  0  0  0  0  0  0  0  0  0  0
    6.6200   -0.5430    0.6960 O   0  0  0  0  0  0  0  0  0  0  0  0
    7.8250   -0.2490    0.2710 C   0  0  0  0  0  0  0  0  0  0  0  0
    7.6730    0.4030   -0.9740 C   0  0  0  0  0  0  0  0  0  0  0  0
    6.3360    0.4610   -1.2370 C   0  0  0  0  0  0  0  0  0  0  0  0
    5.5270    1.2180   -2.6040 Cl  0  0  0  0  0  0  0  0  0  0  0  0
    3.7510   -0.7230   -1.3150 O   0  0  0  0  0  0  0  0  0  0  0  0
    2.4230   -0.8630   -1.6170 C   0  0  0  0  0  0  0  0  0  0  0  0
    2.0200   -1.3960   -2.6700 O   0  0  0  0  0  0  0  0  0  0  0  0
   -2.1460   -0.9780   -0.5920 C   0  0  0  0  0  0  0  0  0  0  0  0
   -1.7690   -2.2550   -1.0530 O   0  0  0  0  0  0  0  0  0  0  0  0
   -3.4580   -0.7130   -0.3300 C   0  0  0  0  0  0  0  0  0  0  0  0
   -4.4070   -1.8520   -0.4100 C   0  0  2  0  0  0  0  0  0  0  0  0
   -5.4490   -1.5870   -1.4750 C   0  0  0  0  0  0  0  0  0  0  0  0
   -5.0410   -2.1250    0.8240 O   0  0  0  0  0  0  0  0  0  0  0  0
   -3.8030    0.5270    0.1170 C   0  0  0  0  0  0  0  0  0  0  0  0
   -5.1960    0.9220    0.4540 C   0  0  0  0  0  0  0  0  0  0  0  0
  1  2  1  0
  2  3  2  0
  2 26  1  0
  3  4  1  0
  4  5  1  0
  4 20  2  0
  5  6  2  3
  6  7  1  0
  6 18  1  0
  7  8  1  0
  8  9  1  1
  8 10  1  0
 10 11  1  6
 10 17  1  0
 11 12  1  0
 11 15  2  0
 12 13  1  0
 13 14  2  0
 14 15  1  0
 15 16  1  0
 17 18  1  0
 18 19  2  0
 20 21  1  0
 20 22  1  0
 22 23  1  0
 22 26  2  0
 23 24  1  6
 23 25  1  0
 26 27  1  0
M  END
