
     RDKit          3D

 24 25  0  0  0  0  0  0  0  0999 V2000
   -3.1200    0.6150   -2.8380 N   0  0  0  0  0  0  0  0  0  0  0  0
   -3.1600   -0.4250   -1.8280 C   0  0  0  0  0  0  0  0  0  0  0  0
   -3.8370   -1.3950   -2.2180 O   0  0  0  0  0  0  0  0  0  0  0  0
   -2.4550   -0.2720   -0.5260 C   0  0  0  0  0  0  0  0  0  0  0  0
   -2.2010    1.1240   -0.4460 N   0  0  0  0  0  0  0  0  0  0  0  0
   -1.6240    1.7350    0.5420 C   0  0  0  0  0  0  0  0  0  0  0  0
   -1.2410    1.0180    1.5760 N   0  0  0  0  0  0  0  0  0  0  0  0
   -1.4390   -0.3560    1.6020 C   0  0  0  0  0  0  0  0  0  0  0  0
   -0.9530   -0.6840    2.7540 O   0  0  0  0  0  0  0  0  0  0  0  0
   -2.0270   -0.9380    0.5490 N   0  0  0  0  0  0  0  0  0  0  0  0
   -1.9300   -2.4290    0.5260 C   0  0  0  0  0  0  0  0  0  0  0  0
   -0.7200   -2.8220   -0.3700 C   0  0  0  0  0  0  0  0  0  0  0  0
    0.5220   -2.0650   -0.0680 C   0  0  1  0  0  0  0  0  0  0  0  0
    1.6330   -3.0690   -0.1620 N   0  0  0  0  0  0  0  0  0  0  0  0
    0.8310   -1.0210   -1.0660 C   0  0  0  0  0  0  0  0  0  0  0  0
    1.7410    0.1210   -0.6020 C   0  0  2  0  0  0  0  0  0  0  0  0
    2.2640   -0.0750    0.7470 C   0  0  0  0  0  0  0  0  0  0  0  0
    3.2400    0.9180    1.2990 C   0  0  0  0  0  0  0  0  0  0  0  0
    2.8370    2.2070    1.4340 O   0  0  0  0  0  0  0  0  0  0  0  0
    1.1790    1.3520   -1.0300 N   0  0  0  0  0  0  0  0  0  0  0  0
    1.0620    2.6710   -0.5740 C   0  0  0  0  0  0  0  0  0  0  0  0
    1.8930    3.5510   -1.1480 O   0  0  0  0  0  0  0  0  0  0  0  0
    0.2150    3.2660    0.3950 N   0  0  0  0  0  0  0  0  0  0  0  0
   -1.2300    3.1730    0.5110 C   0  0  0  0  0  0  0  0  0  0  0  0
  1  2  1  0
  2  3  2  0
  2  4  1  0
  4  5  2  0
  4 10  1  0
  5  6  1  0
  6  7  2  0
  6 24  1  0
  7  8  1  0
  8  9  2  0
  8 10  1  0
 10 11  1  0
 11 12  1  0
 12 13  1  0
 13 14  1  6
 13 15  1  0
 15 16  1  0
 16 17  1  1
 16 20  1  0
 17 18  1  0
 18 19  1  0
 20 21  1  0
 21 22  2  0
 21 23  1  0
 23 24  1  0
M  END
