
     RDKit          3D

 25 26  0  0  0  0  0  0  0  0999 V2000
   -4.2410    0.9740   -3.7970 C   0  0  0  0  0  0  0  0  0  0  0  0
   -3.2270    1.0920   -2.7560 N   0  0  0  0  0  0  0  0  0  0  0  0
   -3.2910    0.3320   -1.5500 C   0  0  0  0  0  0  0  0  0  0  0  0
   -4.2770   -0.4600   -1.4180 O   0  0  0  0  0  0  0  0  0  0  0  0
   -2.2460    0.4670   -0.5000 C   0  0  2  0  0  0  0  0  0  0  0  0
   -0.9400   -0.0180   -1.0600 C   0  0  0  0  0  0  0  0  0  0  0  0
    0.1230   -0.0210   -0.0780 N   0  0  0  0  0  0  0  0  0  0  0  0
    1.4350   -0.4480   -0.4180 C   0  0  0  0  0  0  0  0  0  0  0  0
    1.6010   -0.8190   -1.6250 O   0  0  0  0  0  0  0  0  0  0  0  0
    2.5100   -0.4680    0.5130 N   0  0  0  0  0  0  0  0  0  0  0  0
    3.8060   -0.9320    0.0210 C   0  0  0  0  0  0  0  0  0  0  0  0
    4.8500   -0.9010    1.1100 C   0  0  2  0  0  0  0  0  0  0  0  0
    5.0590    0.4070    1.6440 N   0  0  0  0  0  0  0  0  0  0  0  0
    5.8730    1.3480    0.9630 C   0  0  0  0  0  0  0  0  0  0  0  0
    5.7010    2.5680    1.2160 O   0  0  0  0  0  0  0  0  0  0  0  0
    6.8430    0.8900    0.0290 N   0  0  0  0  0  0  0  0  0  0  0  0
    6.9540   -0.4880   -0.1800 N   0  0  0  0  0  0  0  0  0  0  0  0
    6.1180   -1.3760    0.5260 C   0  0  0  0  0  0  0  0  0  0  0  0
    6.4580   -2.5670    0.6550 O   0  0  0  0  0  0  0  0  0  0  0  0
   -2.5940   -0.4150    0.5650 O   0  0  0  0  0  0  0  0  0  0  0  0
   -3.7880   -0.3040    1.2620 C   0  0  0  0  0  0  0  0  0  0  0  0
   -4.3140   -1.2650    2.0020 C   0  0  0  0  0  0  0  0  0  0  0  0
   -5.5910   -0.8080    2.6040 C   0  0  0  0  0  0  0  0  0  0  0  0
   -5.7080    0.5400    2.1000 N   0  0  0  0  0  0  0  0  0  0  0  0
   -4.7000    0.8260    1.3480 C   0  0  0  0  0  0  0  0  0  0  0  0
  1  2  1  0
  2  3  1  0
  3  4  2  0
  3  5  1  0
  5  6  1  6
  5 20  1  0
  6  7  1  0
  7  8  1  0
  8  9  2  0
  8 10  1  0
 10 11  1  0
 12 11  1  6
 12 13  1  0
 12 18  1  0
 13 14  1  0
 14 15  2  0
 14 16  1  0
 16 17  1  0
 17 18  1  0
 18 19  2  0
 20 21  1  0
 21 22  2  0
 21 25  1  0
 22 23  1  0
 23 24  1  0
 24 25  2  0
M  CHG  1  24   1
M  END
