
     RDKit          3D

 21 23  0  0  0  0  0  0  0  0999 V2000
    0.1860    0.8830    3.0720 O   0  0  0  0  0  0  0  0  0  0  0  0
   -0.3500    0.0430    2.2660 C   0  0  0  0  0  0  0  0  0  0  0  0
   -1.5320   -0.4970    2.6830 O   0  0  0  0  0  0  0  0  0  0  0  0
    0.3490   -0.2310    1.0330 C   0  0  0  0  0  0  0  0  0  0  0  0
    1.6100    0.3270    0.8190 C   0  0  0  0  0  0  0  0  0  0  0  0
    2.3470    0.0450   -0.3130 C   0  0  0  0  0  0  0  0  0  0  0  0
    3.6640    0.6510   -0.4970 C   0  0  0  0  0  0  0  0  0  0  0  0
    4.5600    0.9830    0.5250 C   0  0  0  0  0  0  0  0  0  0  0  0
    5.6650    1.5210   -0.0410 N   0  0  0  0  0  0  0  0  0  0  0  0
    5.5240    1.5490   -1.3480 N   0  0  0  0  0  0  0  0  0  0  0  0
    4.3120    1.0250   -1.6560 C   0  0  0  0  0  0  0  0  0  0  0  0
    1.8590   -0.8060   -1.2800 C   0  0  0  0  0  0  0  0  0  0  0  0
    0.6210   -1.3600   -1.0810 C   0  0  0  0  0  0  0  0  0  0  0  0
   -0.1350   -1.0750    0.0700 C   0  0  0  0  0  0  0  0  0  0  0  0
   -1.3780   -1.6670    0.2060 O   0  0  0  0  0  0  0  0  0  0  0  0
   -2.5860   -0.9950    0.2130 C   0  0  0  0  0  0  0  0  0  0  0  0
   -2.7130    0.3650   -0.0940 C   0  0  0  0  0  0  0  0  0  0  0  0
   -3.9310    1.0120   -0.0790 C   0  0  0  0  0  0  0  0  0  0  0  0
   -5.0810    0.3200    0.2450 C   0  0  0  0  0  0  0  0  0  0  0  0
   -4.9810   -1.0220    0.5500 C   0  0  0  0  0  0  0  0  0  0  0  0
   -3.7540   -1.6550    0.5320 C   0  0  0  0  0  0  0  0  0  0  0  0
  1  2  2  0
  2  3  1  0
  2  4  1  0
  4  5  2  0
  4 14  1  0
  5  6  1  0
  6  7  1  0
  6 12  2  0
  7  8  1  0
  7 11  2  0
  8  9  2  0
  9 10  1  0
 10 11  1  0
 12 13  1  0
 13 14  2  0
 14 15  1  0
 15 16  1  0
 16 17  2  0
 16 21  1  0
 17 18  1  0
 18 19  2  0
 19 20  1  0
 20 21  2  0
M  END
