
     RDKit          3D

 25 26  0  0  0  0  0  0  0  0999 V2000
   -5.0680    1.7260    0.3730 C   0  0  0  0  0  0  0  0  0  0  0  0
   -5.2730    0.2840    0.3370 C   0  0  0  0  0  0  0  0  0  0  0  0
   -6.4840   -0.2430    0.3380 N   0  0  0  0  0  0  0  0  0  0  0  0
   -6.6610   -1.5890    0.3120 C   0  0  0  0  0  0  0  0  0  0  0  0
   -7.7860   -2.1010    0.3120 O   0  0  0  0  0  0  0  0  0  0  0  0
   -5.6000   -2.4020    0.2840 N   0  0  0  0  0  0  0  0  0  0  0  0
   -4.3520   -1.8920    0.2830 C   0  0  0  0  0  0  0  0  0  0  0  0
   -3.3780   -2.6910    0.2640 O   0  0  0  0  0  0  0  0  0  0  0  0
   -4.1180   -0.5460    0.3070 C   0  0  0  0  0  0  0  0  0  0  0  0
   -2.8920    0.0740    0.3240 N   0  0  0  0  0  0  0  0  0  0  0  0
   -1.6630   -0.4160   -0.3670 C   0  0  0  0  0  0  0  0  0  0  0  0
   -1.7650   -1.4290   -0.9860 O   0  0  0  0  0  0  0  0  0  0  0  0
   -0.6390    0.5130   -0.0850 N   0  0  0  0  0  0  0  0  0  0  0  0
    0.5870   -0.2880   -1.0130 C   0  0  0  0  0  0  0  0  0  0  0  0
    0.2110   -1.2050   -1.6010 O   0  0  0  0  0  0  0  0  0  0  0  0
    1.8600    0.3170   -0.8900 C   0  0  0  0  0  0  0  0  0  0  0  0
    2.8390   -0.2760   -1.6560 C   0  0  0  0  0  0  0  0  0  0  0  0
    4.1510    0.1970   -1.6520 N   0  0  0  0  0  0  0  0  0  0  0  0
    4.6450    0.7750   -0.3990 C   0  0  2  0  0  0  0  0  0  0  0  0
    6.0490    1.2640   -0.5090 C   0  0  0  0  0  0  0  0  0  0  0  0
    4.4950   -0.3020    0.6650 C   0  0  0  0  0  0  0  0  0  0  0  0
    5.2540   -1.5020    0.3510 N   0  0  0  0  0  0  0  0  0  0  0  0
    3.6860    1.8270   -0.0980 N   0  0  0  0  0  0  0  0  0  0  0  0
    2.2950    1.4170   -0.0750 C   0  0  0  0  0  0  0  0  0  0  0  0
    1.5120    2.0750    0.6920 O   0  0  0  0  0  0  0  0  0  0  0  0
  1  2  1  0
  2  3  1  0
  2  9  2  0
  3  4  1  0
  4  5  2  0
  4  6  1  0
  6  7  1  0
  7  8  2  0
  7  9  1  0
  9 10  1  0
 10 11  1  0
 11 12  2  0
 11 13  1  0
 13 14  1  0
 14 15  2  0
 14 16  1  0
 16 17  2  0
 16 24  1  0
 17 18  1  0
 18 19  1  0
 19 20  1  6
 19 21  1  0
 19 23  1  0
 21 22  1  0
 23 24  1  0
 24 25  2  0
M  END
