
     RDKit          3D

 14 15  0  0  0  0  0  0  0  0999 V2000
   -2.2500    2.6490   -0.7200 O   0  0  0  0  0  0  0  0  0  0  0  0
   -2.7480    1.5340   -0.4330 C   0  0  0  0  0  0  0  0  0  0  0  0
   -4.1290    1.3950   -0.4100 O   0  0  0  0  0  0  0  0  0  0  0  0
   -1.8450    0.4310   -0.1360 C   0  0  0  0  0  0  0  0  0  0  0  0
   -2.3670   -0.8060    0.1820 C   0  0  0  0  0  0  0  0  0  0  0  0
   -1.4830   -1.8250    0.4570 C   0  0  0  0  0  0  0  0  0  0  0  0
   -0.1130   -1.6070    0.4130 C   0  0  0  0  0  0  0  0  0  0  0  0
    0.4190   -0.3810    0.0980 C   0  0  0  0  0  0  0  0  0  0  0  0
    1.8540   -0.1820    0.0590 C   0  0  0  0  0  0  0  0  0  0  0  0
    2.7750   -0.8490    0.8640 C   0  0  0  0  0  0  0  0  0  0  0  0
    4.0050   -0.4330    0.5750 N   0  0  0  0  0  0  0  0  0  0  0  0
    3.8820    0.4710   -0.3850 N   0  0  0  0  0  0  0  0  0  0  0  0
    2.6150    0.6530   -0.7240 C   0  0  0  0  0  0  0  0  0  0  0  0
   -0.4660    0.6350   -0.1760 C   0  0  0  0  0  0  0  0  0  0  0  0
  1  2  2  0
  2  3  1  0
  2  4  1  0
  4  5  2  0
  4 14  1  0
  5  6  1  0
  6  7  2  0
  7  8  1  0
  8  9  1  0
  8 14  2  0
  9 10  1  0
  9 13  2  0
 10 11  2  0
 11 12  1  0
 12 13  1  0
M  END
