
     RDKit          3D

 14 14  0  0  0  0  0  0  0  0999 V2000
   -1.0250    2.3110   -0.0140 C   0  0  0  0  0  0  0  0  0  0  0  0
   -1.4560    1.1140   -0.0870 C   0  0  0  0  0  0  0  0  0  0  0  0
   -3.0060    1.1060    0.1190 C   0  0  0  0  0  0  0  0  0  0  0  0
   -0.8970   -0.1880   -0.1870 C   0  0  0  0  0  0  0  0  0  0  0  0
   -1.7360   -1.2590   -0.3340 C   0  0  0  0  0  0  0  0  0  0  0  0
   -1.3740   -2.6580   -0.4510 C   0  0  0  0  0  0  0  0  0  0  0  0
    0.0250   -2.8660   -0.3950 N   0  0  0  0  0  0  0  0  0  0  0  0
    0.9520   -1.8040   -0.2270 C   0  0  0  0  0  0  0  0  0  0  0  0
    2.3450   -2.0620   -0.1680 N   0  0  0  0  0  0  0  0  0  0  0  0
    0.5080   -0.5150   -0.1270 C   0  0  0  0  0  0  0  0  0  0  0  0
    1.5520    0.4330    0.1380 C   0  0  0  0  0  0  0  0  0  0  0  0
    2.7830   -0.0350    0.2220 O   0  0  0  0  0  0  0  0  0  0  0  0
    1.5970    1.7690    0.3410 O   0  0  0  0  0  0  0  0  0  0  0  0
    2.7060    2.5710    0.5980 C   0  0  0  0  0  0  0  0  0  0  0  0
  1  2  2  0
  2  3  1  0
  2  4  1  0
  4  5  2  0
  4 10  1  0
  5  6  1  0
  6  7  1  0
  7  8  1  0
  8  9  1  0
  8 10  2  0
 10 11  1  0
 11 12  2  0
 11 13  1  0
 13 14  1  0
M  END
