
     RDKit          3D

 14 15  0  0  0  0  0  0  0  0999 V2000
    1.3000   -0.4520    1.3410 O   0  0  0  0  0  0  0  0  0  0  0  0
    1.0360    0.1620    0.2540 C   0  0  0  0  0  0  0  0  0  0  0  0
    2.0480    0.8760   -0.4450 N   0  0  0  0  0  0  0  0  0  0  0  0
    3.3710    0.9060    0.0740 C   0  0  0  0  0  0  0  0  0  0  0  0
    4.2040    1.8670    0.4790 C   0  0  0  0  0  0  0  0  0  0  0  0
    5.2370    0.8860    0.8000 C   0  0  0  0  0  0  0  0  0  0  0  0
    4.4070   -0.0660    0.3970 C   0  0  0  0  0  0  0  0  0  0  0  0
   -0.2970    0.0880   -0.1980 N   0  0  0  0  0  0  0  0  0  0  0  0
   -1.3180   -0.6540    0.5410 C   0  0  2  0  0  0  0  0  0  0  0  0
   -1.8640   -1.7650   -0.3030 C   0  0  0  0  0  0  0  0  0  0  0  0
   -2.7910   -1.2810   -1.3960 C   0  0  0  0  0  0  0  0  0  0  0  0
   -3.8010   -0.5430   -0.7610 O   0  0  0  0  0  0  0  0  0  0  0  0
   -3.2760    0.6210   -0.2030 C   0  0  0  0  0  0  0  0  0  0  0  0
   -2.4320    0.2530    0.9910 C   0  0  0  0  0  0  0  0  0  0  0  0
  1  2  2  0
  2  3  1  0
  2  8  1  0
  3  4  1  0
  4  5  2  0
  4  7  1  0
  5  6  1  0
  6  7  2  0
  9  8  1  6
  9 10  1  0
  9 14  1  0
 10 11  1  0
 11 12  1  0
 12 13  1  0
 13 14  1  0
M  END
