
     RDKit          3D

 22 24  0  0  0  0  0  0  0  0999 V2000
   -6.4570    1.5590    0.7180 O   0  0  0  0  0  0  0  0  0  0  0  0
   -5.7530    0.6280    0.2110 C   0  0  0  0  0  0  0  0  0  0  0  0
   -5.1910   -0.3110    1.0650 O   0  0  0  0  0  0  0  0  0  0  0  0
   -5.5960    0.6290   -1.2590 C   0  0  0  0  0  0  0  0  0  0  0  0
   -4.7080   -0.4700   -1.7270 C   0  0  0  0  0  0  0  0  0  0  0  0
   -3.3320   -0.3510   -1.1510 C   0  0  0  0  0  0  0  0  0  0  0  0
   -2.2920   -0.8300   -1.1010 N   0  0  0  0  0  0  0  0  0  0  0  0
   -1.1810   -0.4830   -0.4770 C   0  0  0  0  0  0  0  0  0  0  0  0
    0.0530   -1.1050   -0.4520 C   0  0  0  0  0  0  0  0  0  0  0  0
    1.1180   -0.6050    0.2590 C   0  0  0  0  0  0  0  0  0  0  0  0
    2.3280   -1.0790    0.3770 N   0  0  0  0  0  0  0  0  0  0  0  0
    3.2640   -0.7140    0.9550 C   0  0  0  0  0  0  0  0  0  0  0  0
    4.6760   -1.0500    1.2790 C   0  0  0  0  0  0  0  0  0  0  0  0
    5.5780   -0.5330    0.2220 C   0  0  0  0  0  0  0  0  0  0  0  0
    5.5750    0.9130    0.0360 C   0  0  0  0  0  0  0  0  0  0  0  0
    4.9240    1.7360    0.7020 O   0  0  0  0  0  0  0  0  0  0  0  0
    6.3790    1.4330   -0.9870 O   0  0  0  0  0  0  0  0  0  0  0  0
    2.5160    0.8720    1.7420 S   0  0  0  0  0  0  0  0  0  0  0  0
    0.9220    0.5990    0.9900 C   0  0  0  0  0  0  0  0  0  0  0  0
   -0.2920    1.2550    0.9950 C   0  0  0  0  0  0  0  0  0  0  0  0
   -1.3150    0.7110    0.2690 C   0  0  0  0  0  0  0  0  0  0  0  0
   -3.0410    1.1510   -0.0490 S   0  0  0  0  0  0  0  0  0  0  0  0
  1  2  2  0
  2  3  1  0
  2  4  1  0
  4  5  1  0
  5  6  1  0
  6  7  2  0
  6 22  1  0
  7  8  1  0
  8  9  2  0
  8 21  1  0
  9 10  1  0
 10 11  1  0
 10 19  2  0
 11 12  2  0
 12 13  1  0
 12 18  1  0
 13 14  1  0
 14 15  1  0
 15 16  2  0
 15 17  1  0
 18 19  1  0
 19 20  1  0
 20 21  2  0
 21 22  1  0
M  END
