
     RDKit          3D

 17 18  0  0  0  0  0  0  0  0999 V2000
   -0.5960    2.4020   -0.6680 O   0  0  0  0  0  0  0  0  0  0  0  0
   -1.4730    2.0520    0.1530 C   0  0  0  0  0  0  0  0  0  0  0  0
   -1.9740    2.9770    1.0290 O   0  0  0  0  0  0  0  0  0  0  0  0
   -1.9110    0.6560    0.1230 C   0  0  0  0  0  0  0  0  0  0  0  0
   -2.9060    0.2560    0.9990 C   0  0  0  0  0  0  0  0  0  0  0  0
   -3.3580   -1.0420    0.9630 C   0  0  0  0  0  0  0  0  0  0  0  0
   -2.8120   -1.9210    0.0540 C   0  0  0  0  0  0  0  0  0  0  0  0
   -1.8260   -1.5720   -0.8310 C   0  0  0  0  0  0  0  0  0  0  0  0
   -1.0980   -2.8200   -2.0800 Br  0  0  0  0  0  0  0  0  0  0  0  0
   -1.3740   -0.2440   -0.7820 C   0  0  0  0  0  0  0  0  0  0  0  0
   -0.3380    0.1140   -1.6620 N   0  0  0  0  0  0  0  0  0  0  0  0
    1.0090   -0.2950   -1.7050 C   0  0  0  0  0  0  0  0  0  0  0  0
    1.8320   -0.1460   -0.4890 C   0  0  0  0  0  0  0  0  0  0  0  0
    1.6330    0.2800    0.7120 C   0  0  0  0  0  0  0  0  0  0  0  0
    2.8750    0.1960    1.5470 C   0  0  0  0  0  0  0  0  0  0  0  0
    3.8490   -0.3610    0.6100 C   0  0  0  0  0  0  0  0  0  0  0  0
    3.2620   -0.5550   -0.5400 C   0  0  0  0  0  0  0  0  0  0  0  0
  1  2  2  0
  2  3  1  0
  2  4  1  0
  4  5  2  0
  4 10  1  0
  5  6  1  0
  6  7  2  0
  7  8  1  0
  8  9  1  0
  8 10  2  0
 10 11  1  0
 11 12  1  0
 12 13  1  0
 13 14  2  0
 13 17  1  0
 14 15  1  0
 15 16  1  0
 16 17  2  0
M  END
