
     RDKit          3D

 17 18  0  0  0  0  0  0  0  0999 V2000
   -1.4630    2.7600    0.3460 C   0  0  0  0  0  0  0  0  0  0  0  0
   -0.8870    1.4640    0.6040 N   0  0  0  0  0  0  0  0  0  0  0  0
   -1.5620    0.3080    0.1350 C   0  0  0  0  0  0  0  0  0  0  0  0
   -2.8050    0.4030   -0.4790 C   0  0  0  0  0  0  0  0  0  0  0  0
   -3.4850   -0.6870   -0.8980 C   0  0  0  0  0  0  0  0  0  0  0  0
   -2.9540   -1.9450   -0.7240 C   0  0  0  0  0  0  0  0  0  0  0  0
   -1.7260   -2.0660   -0.1200 C   0  0  0  0  0  0  0  0  0  0  0  0
   -1.0160   -0.9350    0.3160 C   0  0  0  0  0  0  0  0  0  0  0  0
    0.2130   -1.1270    0.9140 O   0  0  0  0  0  0  0  0  0  0  0  0
    1.4150   -0.6710    0.3990 C   0  0  0  0  0  0  0  0  0  0  0  0
    1.5390    0.0040   -0.7930 C   0  0  0  0  0  0  0  0  0  0  0  0
    2.7760    0.4220   -1.2300 C   0  0  0  0  0  0  0  0  0  0  0  0
    2.9650    1.3690   -2.8990 Br  0  0  0  0  0  0  0  0  0  0  0  0
    3.8980    0.1650   -0.4690 C   0  0  0  0  0  0  0  0  0  0  0  0
    3.7650   -0.5060    0.7140 C   0  0  0  0  0  0  0  0  0  0  0  0
    2.5440   -0.9380    1.1790 C   0  0  0  0  0  0  0  0  0  0  0  0
    2.4640   -1.6130    2.3830 O   0  0  0  0  0  0  0  0  0  0  0  0
  1  2  1  0
  2  3  1  0
  3  4  2  0
  3  8  1  0
  4  5  1  0
  5  6  2  0
  6  7  1  0
  7  8  2  0
  8  9  1  0
  9 10  1  0
 10 11  2  0
 10 16  1  0
 11 12  1  0
 12 13  1  0
 12 14  2  0
 14 15  1  0
 15 16  2  0
 16 17  1  0
M  END
