
     RDKit          3D

 17 18  0  0  0  0  0  0  0  0999 V2000
    5.3890   -0.2220    0.7750 C   0  0  0  0  0  0  0  0  0  0  0  0
    4.1520    0.4340    0.9780 O   0  0  0  0  0  0  0  0  0  0  0  0
    3.0110   -0.0320    0.3390 C   0  0  0  0  0  0  0  0  0  0  0  0
    3.0590   -1.1210   -0.4910 C   0  0  0  0  0  0  0  0  0  0  0  0
    1.9340   -1.5720   -1.1160 C   0  0  0  0  0  0  0  0  0  0  0  0
    2.0210   -3.0860   -2.2650 Br  0  0  0  0  0  0  0  0  0  0  0  0
    0.7240   -0.9300   -0.9170 C   0  0  0  0  0  0  0  0  0  0  0  0
    0.6970    0.1530   -0.0850 C   0  0  0  0  0  0  0  0  0  0  0  0
   -0.5250    0.8360    0.1310 N   0  0  0  0  0  0  0  0  0  0  0  0
   -1.7950    0.4050   -0.4460 C   0  0  1  0  0  0  0  0  0  0  0  0
   -2.1410   -0.9190    0.1470 C   0  0  0  0  0  0  0  0  0  0  0  0
   -3.2940   -0.8900    1.0630 C   0  0  0  0  0  0  0  0  0  0  0  0
   -4.2600   -0.0040    0.9230 C   0  0  0  0  0  0  0  0  0  0  0  0
   -4.2170    1.0020   -0.1730 C   0  0  0  0  0  0  0  0  0  0  0  0
   -2.7960    1.4860   -0.2810 C   0  0  0  0  0  0  0  0  0  0  0  0
    1.8270    0.6320    0.5620 C   0  0  0  0  0  0  0  0  0  0  0  0
    1.7380    1.7380    1.3950 O   0  0  0  0  0  0  0  0  0  0  0  0
  1  2  1  0
  2  3  1  0
  3  4  2  0
  3 16  1  0
  4  5  1  0
  5  6  1  0
  5  7  2  0
  7  8  1  0
  8  9  1  0
  8 16  2  0
 10  9  1  1
 10 11  1  0
 10 15  1  0
 11 12  1  0
 12 13  2  0
 13 14  1  0
 14 15  1  0
 16 17  1  0
M  END
