
     RDKit          3D

 12 12  0  0  0  0  0  0  0  0999 V2000
    3.0610   -0.2270    0.6960 C   0  0  0  0  0  0  0  0  0  0  0  0
    1.9870   -0.9030    0.1270 O   0  0  0  0  0  0  0  0  0  0  0  0
    1.1720    0.0520   -0.4680 C   0  0  2  0  0  0  0  0  0  0  0  0
    1.8120    0.7920   -1.5030 N   0  0  0  0  0  0  0  0  0  0  0  0
    0.7670    0.9170    0.5570 O   0  0  0  0  0  0  0  0  0  0  0  0
   -0.2660    0.1430    1.1380 C   0  0  0  0  0  0  0  0  0  0  0  0
   -1.0080   -0.2750   -0.0920 C   0  0  2  0  0  0  0  0  0  0  0  0
   -1.9270    0.8480   -0.4990 C   0  0  0  0  0  0  0  0  0  0  0  0
   -1.2000    2.0480   -0.6190 O   0  0  0  0  0  0  0  0  0  0  0  0
   -1.7880   -1.5400    0.0650 C   0  0  0  0  0  0  0  0  0  0  0  0
   -2.8410   -1.4200    0.9660 O   0  0  0  0  0  0  0  0  0  0  0  0
    0.0090   -0.4980   -1.0020 O   0  0  0  0  0  0  0  0  0  0  0  0
  1  2  1  0
  2  3  1  0
  3  4  1  6
  3  5  1  0
  3 12  1  0
  5  6  1  0
  6  7  1  0
  7  8  1  6
  7 10  1  0
  7 12  1  0
  8  9  1  0
 10 11  1  0
M  END
