
     RDKit          3D

 12 12  0  0  0  0  0  0  0  0999 V2000
   -4.1500   -0.0350    1.0290 O   0  0  0  0  0  0  0  0  0  0  0  0
   -2.9670    0.1020    0.5740 C   0  0  0  0  0  0  0  0  0  0  0  0
   -2.4920    1.3070   -0.0230 N   0  0  0  0  0  0  0  0  0  0  0  0
   -1.2340    0.9400   -0.6460 C   0  0  0  0  0  0  0  0  0  0  0  0
   -0.7080   -0.0840    0.3150 C   0  0  2  0  0  0  0  0  0  0  0  0
   -0.3820    0.4890    1.5330 O   0  0  0  0  0  0  0  0  0  0  0  0
    0.3760   -0.9490   -0.2380 C   0  0  1  0  0  0  0  0  0  0  0  0
   -0.0390   -1.5490   -1.4410 O   0  0  0  0  0  0  0  0  0  0  0  0
    1.6910   -0.2940   -0.4540 C   0  0  0  0  0  0  0  0  0  0  0  0
    2.3470    0.2840    0.7600 C   0  0  0  0  0  0  0  0  0  0  0  0
    3.5920    0.8520    0.4070 O   0  0  0  0  0  0  0  0  0  0  0  0
   -1.9300   -0.8710    0.5680 N   0  0  0  0  0  0  0  0  0  0  0  0
  1  2  2  0
  2  3  1  0
  2 12  1  0
  3  4  1  0
  4  5  1  0
  5  6  1  1
  5  7  1  0
  5 12  1  0
  7  8  1  6
  7  9  1  0
  9 10  1  0
 10 11  1  0
M  END
