
     RDKit          3D

 13 13  0  0  0  0  0  0  0  0999 V2000
    2.6020   -0.1320    0.9830 N   0  0  0  0  0  0  0  0  0  0  0  0
    2.3390   -0.3140   -0.3970 C   0  0  0  0  0  0  0  0  0  0  0  0
    3.3150   -0.5610   -1.1410 O   0  0  0  0  0  0  0  0  0  0  0  0
    0.9510   -0.2170   -0.9570 C   0  0  1  0  0  0  0  0  0  0  0  0
    0.0380   -1.2340   -0.3350 C   0  0  0  0  0  0  0  0  0  0  0  0
   -0.5920   -0.8380    0.8010 O   0  0  0  0  0  0  0  0  0  0  0  0
   -1.9050   -0.3960    0.5940 C   0  0  1  0  0  0  0  0  0  0  0  0
   -2.6780   -0.5690    1.7460 O   0  0  0  0  0  0  0  0  0  0  0  0
   -1.8020    1.0430    0.2290 C   0  0  0  0  0  0  0  0  0  0  0  0
   -2.7610    1.7460    0.6450 O   0  0  0  0  0  0  0  0  0  0  0  0
   -0.7660    1.6770   -0.5150 N   0  0  0  0  0  0  0  0  0  0  0  0
    0.5180    1.1650   -0.8250 C   0  0  0  0  0  0  0  0  0  0  0  0
    1.3940    2.0390   -1.0090 O   0  0  0  0  0  0  0  0  0  0  0  0
  1  2  1  0
  2  3  2  0
  4  2  1  1
  4  5  1  0
  4 12  1  0
  5  6  1  0
  6  7  1  0
  7  8  1  1
  7  9  1  0
  9 10  2  0
  9 11  1  0
 11 12  1  0
 12 13  2  0
M  END
