
     RDKit          3D

 12 12  0  0  0  0  0  0  0  0999 V2000
   -0.1200   -2.1370   -0.9660 N   0  0  0  0  0  0  0  0  0  0  0  0
   -0.7640   -1.2900   -0.2810 C   0  0  0  0  0  0  0  0  0  0  0  0
   -1.9200   -1.7010    0.4330 N   0  0  0  0  0  0  0  0  0  0  0  0
   -0.3280    0.1170   -0.2220 C   0  0  2  0  0  0  0  0  0  0  0  0
    0.9410    0.3230   -1.0100 C   0  0  1  0  0  0  0  0  0  0  0  0
    1.1740    1.7130   -0.9910 O   0  0  0  0  0  0  0  0  0  0  0  0
    2.1240   -0.3640   -0.3330 C   0  0  0  0  0  0  0  0  0  0  0  0
    2.2170    0.0920    0.9680 O   0  0  0  0  0  0  0  0  0  0  0  0
   -0.2700    0.6820    1.1590 C   0  0  0  0  0  0  0  0  0  0  0  0
   -1.5560    1.1860    1.3300 O   0  0  0  0  0  0  0  0  0  0  0  0
   -1.9020    1.6740    0.0760 C   0  0  0  0  0  0  0  0  0  0  0  0
   -1.3300    0.8600   -0.8740 O   0  0  0  0  0  0  0  0  0  0  0  0
  1  2  2  0
  2  3  1  0
  4  2  1  1
  4  5  1  0
  4  9  1  0
  4 12  1  0
  5  6  1  1
  5  7  1  0
  7  8  1  0
  9 10  1  0
 10 11  1  0
 11 12  1  0
M  END
