
     RDKit          3D

 13 12  0  0  0  0  0  0  0  0999 V2000
    4.1530   -0.4060   -1.3930 C   0  0  0  0  0  0  0  0  0  0  0  0
    4.0900   -0.1900    0.1030 C   0  0  0  0  0  0  0  0  0  0  0  0
    2.9400    0.6150    0.3450 O   0  0  0  0  0  0  0  0  0  0  0  0
    1.6820    0.1620   -0.0250 C   0  0  0  0  0  0  0  0  0  0  0  0
    1.6130   -0.9640   -0.5700 O   0  0  0  0  0  0  0  0  0  0  0  0
    0.4860    0.8680    0.1630 N   0  0  0  0  0  0  0  0  0  0  0  0
   -0.7820    0.3710   -0.2290 C   0  0  2  0  0  0  0  0  0  0  0  0
   -1.3440    1.1790   -1.2330 O   0  0  0  0  0  0  0  0  0  0  0  0
   -1.8010    0.2350    0.8560 C   0  0  2  0  0  0  0  0  0  0  0  0
   -1.4100   -0.6230    1.8700 O   0  0  0  0  0  0  0  0  0  0  0  0
   -3.0500   -0.3550    0.2290 C   0  0  1  0  0  0  0  0  0  0  0  0
   -4.1220   -0.4870    1.1940 N   0  0  0  0  0  0  0  0  0  0  0  0
   -3.5240    0.4770   -0.8100 O   0  0  0  0  0  0  0  0  0  0  0  0
  1  2  1  0
  2  3  1  0
  3  4  1  0
  4  5  2  0
  4  6  1  0
  6  7  1  0
  7  8  1  6
  7  9  1  0
  9 10  1  1
  9 11  1  0
 11 12  1  1
 11 13  1  0
M  END
