
     RDKit          3D

 13 13  0  0  0  0  0  0  0  0999 V2000
   -1.2320   -2.2120   -0.1660 N   0  0  0  0  0  0  0  0  0  0  0  0
   -1.3260   -1.0720    0.6720 C   0  0  0  0  0  0  0  0  0  0  0  0
   -2.1390   -0.9790    1.6020 O   0  0  0  0  0  0  0  0  0  0  0  0
   -0.3820    0.0490    0.3880 C   0  0  1  0  0  0  0  0  0  0  0  0
    1.0070   -0.5000    0.4740 C   0  0  1  0  0  0  0  0  0  0  0  0
    1.1480   -1.5290   -0.4490 O   0  0  0  0  0  0  0  0  0  0  0  0
    2.0780    0.5350    0.2540 C   0  0  0  0  0  0  0  0  0  0  0  0
    3.3280   -0.0220    0.4020 O   0  0  0  0  0  0  0  0  0  0  0  0
   -0.7450    0.6090   -0.9510 C   0  0  0  0  0  0  0  0  0  0  0  0
   -1.8060    1.5440   -0.6130 N   0  0  0  0  0  0  0  0  0  0  0  0
   -1.6620    1.8470    0.7680 C   0  0  0  0  0  0  0  0  0  0  0  0
   -2.3710    2.6520    1.4210 O   0  0  0  0  0  0  0  0  0  0  0  0
   -0.5980    1.1060    1.3030 O   0  0  0  0  0  0  0  0  0  0  0  0
  1  2  1  0
  2  3  2  0
  4  2  1  1
  4  5  1  0
  4  9  1  0
  4 13  1  0
  5  6  1  6
  5  7  1  0
  7  8  1  0
  9 10  1  0
 10 11  1  0
 11 12  2  0
 11 13  1  0
M  END
