
     RDKit          3D

 33 35  0  0  0  0  0  0  0  0999 V2000
    4.3490   -2.1540    2.1780 O   0  0  0  0  0  0  0  0  0  0  0  0
    5.0770   -1.3150    1.4810 C   0  0  0  0  0  0  0  0  0  0  0  0
    6.4740   -1.5640    1.5130 C   0  0  0  0  0  0  0  0  0  0  0  0
    7.4760   -0.9710    0.9690 C   0  0  0  0  0  0  0  0  0  0  0  0
    7.5950    0.1680    0.1200 C   0  0  0  0  0  0  0  0  0  0  0  0
    8.8080    0.5590   -0.2990 C   0  0  0  0  0  0  0  0  0  0  0  0
   10.0440   -0.0460    0.0110 N   0  0  0  0  0  0  0  0  0  0  0  0
   11.0890    0.6980   -0.6450 C   0  0  0  0  0  0  0  0  0  0  0  0
   12.3220    0.4630   -0.6060 O   0  0  0  0  0  0  0  0  0  0  0  0
   10.4920    1.7700   -1.3650 N   0  0  0  0  0  0  0  0  0  0  0  0
    9.0890    1.7020   -1.1650 C   0  0  0  0  0  0  0  0  0  0  0  0
    8.2550    2.4970   -1.6560 O   0  0  0  0  0  0  0  0  0  0  0  0
    4.3310   -0.3200    0.8260 N   0  0  0  0  0  0  0  0  0  0  0  0
    2.9590   -0.2400    0.9160 C   0  0  0  0  0  0  0  0  0  0  0  0
    1.9190   -0.8680    1.4930 C   0  0  0  0  0  0  0  0  0  0  0  0
    0.7060   -0.4340    1.3030 N   0  0  0  0  0  0  0  0  0  0  0  0
    0.3720    0.5430    0.6140 C   0  0  0  0  0  0  0  0  0  0  0  0
   -0.8270    1.2910    0.1840 C   0  0  0  0  0  0  0  0  0  0  0  0
   -2.0110    0.7240    0.7080 N   0  0  0  0  0  0  0  0  0  0  0  0
   -2.8470   -0.0010   -0.2370 C   0  0  2  0  0  0  0  0  0  0  0  0
   -3.3030    0.7130   -1.4180 C   0  0  0  0  0  0  0  0  0  0  0  0
   -4.1320    1.9120   -1.3790 C   0  0  0  0  0  0  0  0  0  0  0  0
   -3.6440    3.1520   -0.7330 C   0  0  2  0  0  0  0  0  0  0  0  0
   -4.7170    4.0920   -0.8970 O   0  0  0  0  0  0  0  0  0  0  0  0
   -2.2920    3.9270   -1.6240 Cl  0  0  0  0  0  0  0  0  0  0  0  0
   -3.8220   -0.7710    0.5790 C   0  0  0  0  0  0  0  0  0  0  0  0
   -4.7830   -1.6230   -0.1860 C   0  0  1  0  0  0  0  0  0  0  0  0
   -5.7040   -2.3620    0.8110 C   0  0  0  0  0  0  0  0  0  0  0  0
   -7.0570   -1.6860    0.7450 C   0  0  0  0  0  0  0  0  0  0  0  0
   -7.6420   -2.0170   -0.6270 C   0  0  0  0  0  0  0  0  0  0  0  0
   -6.5570   -1.6690   -1.6550 C   0  0  0  0  0  0  0  0  0  0  0  0
   -5.5730   -0.8980   -1.0580 O   0  0  0  0  0  0  0  0  0  0  0  0
    1.9990    1.1050    0.0220 S   0  0  0  0  0  0  0  0  0  0  0  0
  1  2  2  0
  2  3  1  0
  2 13  1  0
  3  4  2  3
  4  5  1  0
  5  6  2  3
  6  7  1  0
  6 11  1  0
  7  8  1  0
  8  9  2  0
  8 10  1  0
 10 11  1  0
 11 12  2  0
 13 14  1  0
 14 15  2  0
 14 33  1  0
 15 16  1  0
 16 17  2  0
 17 18  1  0
 17 33  1  0
 18 19  1  0
 19 20  1  0
 20 21  1  6
 20 26  1  0
 21 22  1  0
 22 23  1  0
 23 24  1  6
 23 25  1  0
 27 26  1  1
 27 28  1  0
 27 32  1  0
 28 29  1  0
 29 30  1  0
 30 31  1  0
 31 32  1  0
M  CHG  1  19   1
M  END
