
     RDKit          3D

 33 36  0  0  0  0  0  0  0  0999 V2000
   -6.3450    3.1670   -1.3150 C   0  0  0  0  0  0  0  0  0  0  0  0
   -6.0850    2.1340   -0.3920 O   0  0  0  0  0  0  0  0  0  0  0  0
   -5.7550    0.9750   -1.1020 C   0  0  1  0  0  0  0  0  0  0  0  0
   -4.4050    0.5140   -0.7140 C   0  0  0  0  0  0  0  0  0  0  0  0
   -4.1050   -0.7610   -0.6370 C   0  0  0  0  0  0  0  0  0  0  0  0
   -2.8040   -1.2930   -0.2620 C   0  0  2  0  0  0  0  0  0  0  0  0
   -2.9470   -2.2010    0.8550 N   0  0  0  0  0  0  0  0  0  0  0  0
   -2.2860   -1.9600    2.1040 C   0  0  0  0  0  0  0  0  0  0  0  0
   -1.9820   -2.9400    2.8380 O   0  0  0  0  0  0  0  0  0  0  0  0
   -1.9940   -0.5610    2.4630 C   0  0  0  0  0  0  0  0  0  0  0  0
   -1.6650    0.3280    1.3150 C   0  0  0  0  0  0  0  0  0  0  0  0
   -1.7030   -0.2930   -0.0340 C   0  0  1  0  0  0  0  0  0  0  0  0
   -0.4710   -1.0450   -0.2340 N   0  0  0  0  0  0  0  0  0  0  0  0
    0.7370   -0.3070   -0.1010 C   0  0  2  0  0  0  0  0  0  0  0  0
    1.5350   -0.5800   -1.3900 C   0  0  0  0  0  0  0  0  0  0  0  0
    1.5230   -0.9560    1.0200 C   0  0  0  0  0  0  0  0  0  0  0  0
    2.8240   -0.3120    1.2840 C   0  0  0  0  0  0  0  0  0  0  0  0
    3.2370    0.7050    2.1160 C   0  0  0  0  0  0  0  0  0  0  0  0
    4.5320    1.0410    2.1000 C   0  0  0  0  0  0  0  0  0  0  0  0
    5.4090    0.4100    1.3000 C   0  0  0  0  0  0  0  0  0  0  0  0
    6.8360    0.5790    1.1420 C   0  0  0  0  0  0  0  0  0  0  0  0
    7.7970    0.6590    2.6110 Cl  0  0  0  0  0  0  0  0  0  0  0  0
    7.4060    0.6680   -0.0040 C   0  0  0  0  0  0  0  0  0  0  0  0
    8.7920    0.8270   -0.2320 N   0  0  0  0  0  0  0  0  0  0  0  0
    9.0390    0.9110   -1.4770 C   0  0  0  0  0  0  0  0  0  0  0  0
    7.8650    0.8210   -2.2660 N   0  0  0  0  0  0  0  0  0  0  0  0
    6.7820    0.6620   -1.3160 C   0  0  0  0  0  0  0  0  0  0  0  0
    5.5730    0.5460   -1.5930 O   0  0  0  0  0  0  0  0  0  0  0  0
    4.3660   -0.7690    0.4780 S   0  0  0  0  0  0  0  0  0  0  0  0
   -5.1640   -1.7450   -0.9490 C   0  0  0  0  0  0  0  0  0  0  0  0
   -5.0060   -2.9810   -0.9150 O   0  0  0  0  0  0  0  0  0  0  0  0
   -6.4420   -1.1800   -1.3100 N   0  0  0  0  0  0  0  0  0  0  0  0
   -6.7140    0.0370   -0.8010 O   0  0  0  0  0  0  0  0  0  0  0  0
  1  2  1  0
  3  2  1  1
  3  4  1  0
  3 33  1  0
  4  5  2  0
  6  5  1  1
  5 30  1  0
  6  7  1  0
  6 12  1  0
  7  8  1  0
  8  9  2  0
  8 10  1  0
 10 11  1  0
 11 12  1  0
 12 13  1  1
 13 14  1  0
 14 15  1  6
 14 16  1  0
 16 17  1  0
 17 18  2  0
 17 29  1  0
 18 19  1  0
 19 20  2  0
 20 21  1  0
 20 29  1  0
 21 22  1  0
 21 23  2  3
 23 24  1  0
 23 27  1  0
 24 25  2  0
 25 26  1  0
 26 27  1  0
 27 28  2  0
 30 31  2  0
 30 32  1  0
 32 33  1  0
M  CHG  1  13   1
M  END
