
     RDKit          3D

 34 36  0  0  0  0  0  0  0  0999 V2000
    4.3780    2.3790   -0.4060 C   0  0  0  0  0  0  0  0  0  0  0  0
    4.7940    1.0920    0.1800 C   0  0  0  0  0  0  0  0  0  0  0  0
    3.8470    0.2270    0.6190 C   0  0  0  0  0  0  0  0  0  0  0  0
    2.1990    0.6290    0.4940 S   0  0  0  0  0  0  0  0  0  0  0  0
    0.9490   -0.5050    0.1050 C   0  0  0  0  0  0  0  0  0  0  0  0
   -0.3300    0.0180    0.2410 N   0  0  0  0  0  0  0  0  0  0  0  0
   -1.4450   -0.6520    0.0790 C   0  0  0  0  0  0  0  0  0  0  0  0
   -2.7770    0.0410    0.2470 C   0  0  0  0  0  0  0  0  0  0  0  0
   -2.5530    1.4370    0.4570 N   0  0  0  0  0  0  0  0  0  0  0  0
   -3.1270    2.3180   -0.5100 C   0  0  2  0  0  0  0  0  0  0  0  0
   -3.5280    3.6250    0.1530 C   0  0  0  0  0  0  0  0  0  0  0  0
   -4.8160    3.4710    0.9340 C   0  0  0  0  0  0  0  0  0  0  0  0
   -5.9710    3.0390    0.0960 C   0  0  0  0  0  0  0  0  0  0  0  0
   -5.5690    1.8630   -0.6740 N   0  0  0  0  0  0  0  0  0  0  0  0
   -4.2860    1.7450   -1.2530 C   0  0  0  0  0  0  0  0  0  0  0  0
   -4.1580    1.1690   -2.3610 O   0  0  0  0  0  0  0  0  0  0  0  0
   -1.3730   -1.9500   -0.2450 N   0  0  0  0  0  0  0  0  0  0  0  0
   -2.5720   -2.7300   -0.4230 C   0  0  0  0  0  0  0  0  0  0  0  0
   -3.0350   -3.4000    0.8560 C   0  0  2  0  0  0  0  0  0  0  0  0
   -2.0680   -4.2660    1.3580 O   0  0  0  0  0  0  0  0  0  0  0  0
   -4.2530   -4.2320    0.5110 C   0  0  0  0  0  0  0  0  0  0  0  0
   -3.9440   -5.1990   -0.4420 O   0  0  0  0  0  0  0  0  0  0  0  0
   -0.1820   -2.5170   -0.3960 C   0  0  0  0  0  0  0  0  0  0  0  0
   -0.0680   -3.7330   -0.7000 O   0  0  0  0  0  0  0  0  0  0  0  0
    1.0360   -1.8210   -0.2310 C   0  0  0  0  0  0  0  0  0  0  0  0
    2.3090   -2.4810   -0.5790 C   0  0  1  0  0  0  0  0  0  0  0  0
    1.9190   -3.4450   -1.5920 O   0  0  0  0  0  0  0  0  0  0  0  0
    3.3460   -1.4090   -1.6060 Cl  0  0  0  0  0  0  0  0  0  0  0  0
    6.1920    0.7320    0.2980 C   0  0  0  0  0  0  0  0  0  0  0  0
    6.7040   -0.4490    0.8470 C   0  0  0  0  0  0  0  0  0  0  0  0
    8.0340   -0.3670    0.7520 N   0  0  0  0  0  0  0  0  0  0  0  0
    8.4070    0.7500    0.1970 N   0  0  0  0  0  0  0  0  0  0  0  0
    7.2780    1.4600   -0.0990 C   0  0  0  0  0  0  0  0  0  0  0  0
    7.3580    2.7910   -0.7480 C   0  0  0  0  0  0  0  0  0  0  0  0
  1  2  1  0
  2  3  2  3
  2 29  1  0
  3  4  1  0
  4  5  1  0
  5  6  1  0
  5 25  2  0
  6  7  2  0
  7  8  1  0
  7 17  1  0
  8  9  1  0
 10  9  1  1
 10 11  1  0
 10 15  1  0
 11 12  1  0
 12 13  1  0
 13 14  1  0
 14 15  1  0
 15 16  2  0
 17 18  1  0
 17 23  1  0
 18 19  1  0
 19 20  1  6
 19 21  1  0
 21 22  1  0
 23 24  2  0
 23 25  1  0
 25 26  1  0
 26 27  1  6
 26 28  1  0
 29 30  2  0
 29 33  1  0
 30 31  1  0
 31 32  1  0
 32 33  2  0
 33 34  1  0
M  CHG  1   9   1
M  END
