
     RDKit          3D

 32 35  0  0  0  0  0  0  0  0999 V2000
   -2.8830    3.6590   -1.1710 C   0  0  0  0  0  0  0  0  0  0  0  0
   -2.9340    2.6400   -0.0530 C   0  0  0  0  0  0  0  0  0  0  0  0
   -1.6490    2.2500    0.4330 N   0  0  0  0  0  0  0  0  0  0  0  0
   -0.6830    1.4900   -0.3010 C   0  0  0  0  0  0  0  0  0  0  0  0
   -0.9040    0.2530   -0.6150 C   0  0  0  0  0  0  0  0  0  0  0  0
   -2.0500   -0.5700   -0.3290 C   0  0  0  0  0  0  0  0  0  0  0  0
   -2.7290   -1.2150   -1.3790 C   0  0  0  0  0  0  0  0  0  0  0  0
   -3.7930   -2.0670   -1.1680 C   0  0  0  0  0  0  0  0  0  0  0  0
   -4.2250   -2.3090    0.1030 C   0  0  0  0  0  0  0  0  0  0  0  0
   -3.5840   -1.6940    1.1540 C   0  0  0  0  0  0  0  0  0  0  0  0
   -2.5000   -0.8310    0.9160 C   0  0  0  0  0  0  0  0  0  0  0  0
   -1.9110   -0.3050    2.0800 N   0  0  0  0  0  0  0  0  0  0  0  0
   -2.9250    0.4410    2.8110 C   0  0  0  0  0  0  0  0  0  0  0  0
   -5.2550   -3.1500    0.1340 C   0  0  0  0  0  0  0  0  0  0  0  0
   -5.5630   -3.5240   -1.2620 C   0  0  0  0  0  0  0  0  0  0  0  0
   -4.5410   -2.7530   -2.0270 C   0  0  0  0  0  0  0  0  0  0  0  0
   -4.3110   -2.7140   -3.7620 Cl  0  0  0  0  0  0  0  0  0  0  0  0
    0.2000   -0.4180   -1.3890 C   0  0  0  0  0  0  0  0  0  0  0  0
    1.5160   -0.0910   -0.8510 N   0  0  0  0  0  0  0  0  0  0  0  0
    1.5550   -0.3580    0.5830 C   0  0  0  0  0  0  0  0  0  0  0  0
    3.0110   -0.3840    0.9720 C   0  0  0  0  0  0  0  0  0  0  0  0
    3.2280   -0.5130    2.1880 O   0  0  0  0  0  0  0  0  0  0  0  0
    4.0660   -0.2740    0.0480 N   0  0  0  0  0  0  0  0  0  0  0  0
    5.4330   -0.2710    0.3280 C   0  0  0  0  0  0  0  0  0  0  0  0
    5.9560   -0.1160    1.5720 C   0  0  0  0  0  0  0  0  0  0  0  0
    7.3410   -0.1300    1.8050 C   0  0  0  0  0  0  0  0  0  0  0  0
    8.1750   -0.3060    0.7430 C   0  0  0  0  0  0  0  0  0  0  0  0
    9.9370   -0.3370    0.9130 Cl  0  0  0  0  0  0  0  0  0  0  0  0
    7.6820   -0.4680   -0.5470 C   0  0  0  0  0  0  0  0  0  0  0  0
    6.3360   -0.4470   -0.7290 C   0  0  0  0  0  0  0  0  0  0  0  0
    1.7080    1.3590   -1.0520 C   0  0  0  0  0  0  0  0  0  0  0  0
    0.5440    2.1990   -0.6790 C   0  0  0  0  0  0  0  0  0  0  0  0
  1  2  1  0
  2  3  1  0
  3  4  1  0
  4  5  2  0
  4 32  1  0
  5  6  1  0
  5 18  1  0
  6  7  2  0
  6 11  1  0
  7  8  1  0
  8  9  1  0
  8 16  2  0
  9 10  1  0
  9 14  2  0
 10 11  2  0
 11 12  1  0
 12 13  1  0
 14 15  1  0
 15 16  1  0
 16 17  1  0
 18 19  1  0
 19 20  1  0
 19 31  1  0
 20 21  1  0
 21 22  2  0
 21 23  1  0
 23 24  1  0
 24 25  2  0
 24 30  1  0
 25 26  1  0
 26 27  2  0
 27 28  1  0
 27 29  1  0
 29 30  2  0
 31 32  1  0
M  CHG  1  12   1
M  END
