
     RDKit          3D

 32 35  0  0  0  0  0  0  0  0999 V2000
   -3.1010    0.7640    3.7790 C   0  0  0  0  0  0  0  0  0  0  0  0
   -2.2200    1.8320    3.1610 C   0  0  0  0  0  0  0  0  0  0  0  0
   -2.0390    1.4670    1.7340 C   0  0  0  0  0  0  0  0  0  0  0  0
   -0.9790    0.6580    1.3170 C   0  0  0  0  0  0  0  0  0  0  0  0
   -0.8670    0.3550   -0.0230 C   0  0  0  0  0  0  0  0  0  0  0  0
    0.2240   -0.4860   -0.5620 C   0  0  0  0  0  0  0  0  0  0  0  0
    1.5570   -0.1490   -0.5550 C   0  0  0  0  0  0  0  0  0  0  0  0
    2.1770    1.0690   -0.0250 C   0  0  0  0  0  0  0  0  0  0  0  0
    2.5630    2.1340   -0.8060 C   0  0  0  0  0  0  0  0  0  0  0  0
    3.1510    3.2640   -0.2660 C   0  0  0  0  0  0  0  0  0  0  0  0
    3.5690    4.4170   -1.1080 C   0  0  0  0  0  0  0  0  0  0  0  0
    3.3570    3.3250    1.0910 C   0  0  0  0  0  0  0  0  0  0  0  0
    2.9790    2.2670    1.9040 C   0  0  0  0  0  0  0  0  0  0  0  0
    3.2520    2.3710    3.6180 Cl  0  0  0  0  0  0  0  0  0  0  0  0
    2.3880    1.1410    1.3330 C   0  0  0  0  0  0  0  0  0  0  0  0
    2.2330   -1.2100   -1.1600 C   0  0  0  0  0  0  0  0  0  0  0  0
    3.5850   -1.3900   -1.4110 C   0  0  0  0  0  0  0  0  0  0  0  0
    3.9860   -2.5460   -2.0310 C   0  0  0  0  0  0  0  0  0  0  0  0
    5.6950   -2.7870   -2.3550 Cl  0  0  0  0  0  0  0  0  0  0  0  0
    3.0620   -3.5120   -2.3980 C   0  0  0  0  0  0  0  0  0  0  0  0
    1.7180   -3.3460   -2.1550 C   0  0  0  0  0  0  0  0  0  0  0  0
    1.3190   -2.1750   -1.5280 C   0  0  0  0  0  0  0  0  0  0  0  0
    0.1150   -1.6900   -1.1440 N   0  0  0  0  0  0  0  0  0  0  0  0
   -1.1320   -2.3880   -1.3460 C   0  0  0  0  0  0  0  0  0  0  0  0
   -1.5300   -3.3050   -0.2400 C   0  0  1  0  0  0  0  0  0  0  0  0
   -1.7150   -2.6510    1.0850 C   0  0  0  0  0  0  0  0  0  0  0  0
   -2.7840   -3.9250   -0.6270 N   0  0  0  0  0  0  0  0  0  0  0  0
   -1.8060    0.8700   -0.8460 N   0  0  0  0  0  0  0  0  0  0  0  0
   -2.8150    1.6390   -0.4550 C   0  0  0  0  0  0  0  0  0  0  0  0
   -3.8090    2.1630   -1.4500 C   0  0  0  0  0  0  0  0  0  0  0  0
   -3.4150    3.3750   -1.9890 O   0  0  0  0  0  0  0  0  0  0  0  0
   -2.9320    1.9390    0.8480 N   0  0  0  0  0  0  0  0  0  0  0  0
  1  2  1  0
  2  3  1  0
  3  4  2  0
  3 32  1  0
  4  5  1  0
  5  6  1  0
  5 28  2  0
  6  7  2  0
  6 23  1  0
  7  8  1  0
  7 16  1  0
  8  9  2  0
  8 15  1  0
  9 10  1  0
 10 11  1  0
 10 12  2  0
 12 13  1  0
 13 14  1  0
 13 15  2  0
 16 17  2  0
 16 22  1  0
 17 18  1  0
 18 19  1  0
 18 20  2  0
 20 21  1  0
 21 22  2  0
 22 23  1  0
 23 24  1  0
 24 25  1  0
 25 26  1  1
 25 27  1  0
 28 29  1  0
 29 30  1  0
 29 32  2  0
 30 31  1  0
M  CHG  1  27   1
M  END
