
     RDKit          3D

 32 35  0  0  0  0  0  0  0  0999 V2000
    1.4050   -2.8740    0.3930 C   0  0  0  0  0  0  0  0  0  0  0  0
    0.9540   -1.6920   -0.2560 O   0  0  0  0  0  0  0  0  0  0  0  0
    1.7540   -0.5600   -0.2870 C   0  0  0  0  0  0  0  0  0  0  0  0
    3.0010   -0.5610    0.3110 C   0  0  0  0  0  0  0  0  0  0  0  0
    3.8170    0.5530    0.2950 C   0  0  0  0  0  0  0  0  0  0  0  0
    5.1240    0.5270    0.9310 C   0  0  0  0  0  0  0  0  0  0  0  0
    5.8730   -0.6310    0.9870 C   0  0  0  0  0  0  0  0  0  0  0  0
    7.1030   -0.6250    1.5940 C   0  0  0  0  0  0  0  0  0  0  0  0
    7.6080    0.5220    2.1530 C   0  0  0  0  0  0  0  0  0  0  0  0
    8.8290    0.5210    2.7550 F   0  0  0  0  0  0  0  0  0  0  0  0
    6.8900    1.6800    2.1120 C   0  0  0  0  0  0  0  0  0  0  0  0
    5.6480    1.6640    1.4960 C   0  0  0  0  0  0  0  0  0  0  0  0
    3.3600    1.6790   -0.3370 C   0  0  0  0  0  0  0  0  0  0  0  0
    2.1220    1.6720   -0.9280 C   0  0  0  0  0  0  0  0  0  0  0  0
    1.2770    0.5780   -0.9320 C   0  0  0  0  0  0  0  0  0  0  0  0
    0.0010    0.6070   -1.5540 N   0  0  0  0  0  0  0  0  0  0  0  0
   -1.1310    0.3460   -0.8420 C   0  0  0  0  0  0  0  0  0  0  0  0
   -2.3970    0.3690   -1.4360 C   0  0  0  0  0  0  0  0  0  0  0  0
   -3.5930    0.0870   -0.6560 C   0  0  0  0  0  0  0  0  0  0  0  0
   -4.8220    0.1160   -1.2630 C   0  0  0  0  0  0  0  0  0  0  0  0
   -5.9760   -0.1540   -0.5190 C   0  0  0  0  0  0  0  0  0  0  0  0
   -7.2960   -0.1200   -1.1840 C   0  0  0  0  0  0  0  0  0  0  0  0
   -5.9270   -0.4510    0.8090 C   0  0  0  0  0  0  0  0  0  0  0  0
   -7.0430   -0.7190    1.5560 F   0  0  0  0  0  0  0  0  0  0  0  0
   -4.6990   -0.4820    1.4250 C   0  0  0  0  0  0  0  0  0  0  0  0
   -4.6220   -0.8020    2.8720 C   0  0  0  0  0  0  0  0  0  0  0  0
   -3.5490   -0.2140    0.6880 C   0  0  0  0  0  0  0  0  0  0  0  0
   -2.4120    0.6640   -2.7420 N   0  0  0  0  0  0  0  0  0  0  0  0
   -1.3240    0.9300   -3.4910 C   0  0  0  0  0  0  0  0  0  0  0  0
   -1.3590    1.2010   -4.7010 O   0  0  0  0  0  0  0  0  0  0  0  0
   -0.0950    0.8950   -2.8630 C   0  0  0  0  0  0  0  0  0  0  0  0
    0.9750    1.1330   -3.4960 O   0  0  0  0  0  0  0  0  0  0  0  0
  1  2  1  0
  2  3  1  0
  3  4  2  0
  3 15  1  0
  4  5  1  0
  5  6  1  0
  5 13  2  0
  6  7  2  0
  6 12  1  0
  7  8  1  0
  8  9  2  0
  9 10  1  0
  9 11  1  0
 11 12  2  0
 13 14  1  0
 14 15  2  0
 15 16  1  0
 16 17  1  0
 16 31  1  0
 17 18  2  0
 18 19  1  0
 18 28  1  0
 19 20  2  0
 19 27  1  0
 20 21  1  0
 21 22  1  0
 21 23  2  0
 23 24  1  0
 23 25  1  0
 25 26  1  0
 25 27  2  0
 28 29  1  0
 29 30  2  0
 29 31  1  0
 31 32  2  0
M  END
