
     RDKit          3D

 22 22  0  0  0  0  0  0  0  0999 V2000
   -3.8330    0.0250   -1.9260 C   0  0  0  0  0  0  0  0  0  0  0  0
   -3.2550    0.3060   -0.6760 O   0  0  0  0  0  0  0  0  0  0  0  0
   -2.6550   -0.7970   -0.1270 C   0  0  2  0  0  0  0  0  0  0  0  0
   -3.2180   -1.2020    1.0770 O   0  0  0  0  0  0  0  0  0  0  0  0
   -1.1610   -0.5900    0.0980 C   0  0  1  0  0  0  0  0  0  0  0  0
   -1.0030    0.4690    0.9520 O   0  0  0  0  0  0  0  0  0  0  0  0
   -0.4630    1.5990    0.3980 C   0  0  2  0  0  0  0  0  0  0  0  0
   -1.3440    2.8050    0.7370 C   0  0  0  0  0  0  0  0  0  0  0  0
   -1.4010    2.9350    2.1280 O   0  0  0  0  0  0  0  0  0  0  0  0
   -0.3090    1.5680   -0.9640 O   0  0  0  0  0  0  0  0  0  0  0  0
    0.7880    2.3590   -1.3070 C   0  0  0  0  0  0  0  0  0  0  0  0
    2.1010    1.7280   -0.8980 C   0  0  0  0  0  0  0  0  0  0  0  0
    1.8960    0.3780   -0.7320 O   0  0  0  0  0  0  0  0  0  0  0  0
    3.0620   -0.3490   -0.5860 C   0  0  0  0  0  0  0  0  0  0  0  0
    3.0860   -1.1860    0.6720 C   0  0  2  0  0  0  0  0  0  0  0  0
    4.2670   -1.9190    0.6560 O   0  0  0  0  0  0  0  0  0  0  0  0
    1.9310   -2.1710    0.7130 C   0  0  2  0  0  0  0  0  0  0  0  0
    2.5380   -3.5570    1.6930 Cl  0  0  0  0  0  0  0  0  0  0  0  0
    1.6920   -2.7780   -0.9180 Cl  0  0  0  0  0  0  0  0  0  0  0  0
    0.7240   -1.6210    1.3710 C   0  0  0  0  0  0  0  0  0  0  0  0
   -0.5760   -1.8510    0.7060 C   0  0  2  0  0  0  0  0  0  0  0  0
   -0.5670   -2.8160   -0.2880 O   0  0  0  0  0  0  0  0  0  0  0  0
  1  2  1  0
  2  3  1  0
  3  4  1  1
  3  5  1  0
  5  6  1  1
  5 21  1  0
  6  7  1  0
  7  8  1  6
  7 10  1  0
  8  9  1  0
 10 11  1  0
 11 12  1  0
 12 13  1  0
 13 14  1  0
 14 15  1  0
 15 16  1  6
 15 17  1  0
 17 18  1  1
 17 19  1  0
 17 20  1  0
 20 21  1  0
 21 22  1  6
M  END
