
     RDKit          3D

 22 22  0  0  0  0  0  0  0  0999 V2000
   -3.2310   -1.8120    2.2510 C   0  0  0  0  0  0  0  0  0  0  0  0
   -2.5790   -1.3930    0.9620 C   0  0  1  0  0  0  0  0  0  0  0  0
   -3.1020   -0.1050    0.4640 C   0  0  0  0  0  0  0  0  0  0  0  0
   -2.4010    0.6170   -0.4250 O   0  0  0  0  0  0  0  0  0  0  0  0
   -1.0490    0.3730   -0.5780 C   0  0  1  0  0  0  0  0  0  0  0  0
   -0.2810    1.3570    0.2060 C   0  0  1  0  0  0  0  0  0  0  0  0
   -0.6050    2.6400   -0.3040 O   0  0  0  0  0  0  0  0  0  0  0  0
   -0.5910    1.4470    1.6750 C   0  0  0  0  0  0  0  0  0  0  0  0
    0.2580    2.4750    2.1640 O   0  0  0  0  0  0  0  0  0  0  0  0
   -0.7740   -1.0780   -0.2720 C   0  0  1  0  0  0  0  0  0  0  0  0
    0.5790   -1.5770   -0.5700 C   0  0  1  0  0  0  0  0  0  0  0  0
    0.5660   -3.0000   -0.2870 O   0  0  0  0  0  0  0  0  0  0  0  0
    0.9030   -1.5760   -1.9190 O   0  0  0  0  0  0  0  0  0  0  0  0
    2.1850   -1.2170   -2.1780 C   0  0  0  0  0  0  0  0  0  0  0  0
    2.5840    0.1500   -1.7810 C   0  0  0  0  0  0  0  0  0  0  0  0
    1.8930    1.2000   -2.3600 O   0  0  0  0  0  0  0  0  0  0  0  0
    3.5430    0.4020   -0.9260 C   0  0  0  0  0  0  0  0  0  0  0  0
    3.9600    1.7510   -0.5150 C   0  0  1  0  0  0  0  0  0  0  0  0
    3.7350    1.8200    1.2700 Cl  0  0  0  0  0  0  0  0  0  0  0  0
    5.6670    2.0590   -0.9130 Cl  0  0  0  0  0  0  0  0  0  0  0  0
    2.9000    2.9480   -1.2590 Cl  0  0  0  0  0  0  0  0  0  0  0  0
   -1.1920   -1.3440    1.0600 O   0  0  0  0  0  0  0  0  0  0  0  0
  2  1  1  1
  2  3  1  0
  2 22  1  0
  3  4  1  0
  5  4  1  1
  5  6  1  0
  5 10  1  0
  6  7  1  6
  6  8  1  0
  8  9  1  0
 10 11  1  0
 10 22  1  1
 11 12  1  6
 11 13  1  0
 13 14  1  0
 14 15  1  0
 15 16  1  0
 15 17  2  3
 17 18  1  0
 18 19  1  1
 18 20  1  0
 18 21  1  0
M  END
