
     RDKit          3D

 22 23  0  0  0  0  0  0  0  0999 V2000
    0.7260   -0.6100   -2.0790 C   0  0  0  0  0  0  0  0  0  0  0  0
    0.0200   -1.1890   -0.8490 C   0  0  2  0  0  0  0  0  0  0  0  0
    0.4980   -2.6300   -0.7110 C   0  0  0  0  0  0  0  0  0  0  0  0
   -1.4700   -1.1990   -1.0400 C   0  0  2  0  0  0  0  0  0  0  0  0
   -2.0150   -2.4810   -0.9970 O   0  0  0  0  0  0  0  0  0  0  0  0
   -1.9100   -0.4870   -2.6100 Cl  0  0  0  0  0  0  0  0  0  0  0  0
   -2.0500   -0.3060    0.0400 C   0  0  1  0  0  0  0  0  0  0  0  0
   -3.2510    0.2730   -0.2670 O   0  0  0  0  0  0  0  0  0  0  0  0
   -2.1600   -0.9950    1.3960 C   0  0  0  0  0  0  0  0  0  0  0  0
   -1.4840    0.2310    1.9680 C   0  0  0  0  0  0  0  0  0  0  0  0
   -0.9360    0.5060    0.5850 C   0  0  2  0  0  0  0  0  0  0  0  0
   -0.6650    1.7480    0.2320 O   0  0  0  0  0  0  0  0  0  0  0  0
   -1.4510    2.8130    0.3780 C   0  0  0  0  0  0  0  0  0  0  0  0
   -2.6410    2.7030   -0.2950 O   0  0  0  0  0  0  0  0  0  0  0  0
    0.2970   -0.3850    0.3770 C   0  0  1  0  0  0  0  0  0  0  0  0
    0.5300   -1.2310    1.4410 O   0  0  0  0  0  0  0  0  0  0  0  0
    1.4960    0.5100    0.2470 C   0  0  0  0  0  0  0  0  0  0  0  0
    2.6640   -0.1870    0.0160 O   0  0  0  0  0  0  0  0  0  0  0  0
    3.7370    0.6680   -0.0960 C   0  0  2  0  0  0  0  0  0  0  0  0
    4.3570    0.5030   -1.3370 O   0  0  0  0  0  0  0  0  0  0  0  0
    4.6520    0.4150    0.9260 O   0  0  0  0  0  0  0  0  0  0  0  0
    4.8970    1.7370    1.9380 Cl  0  0  0  0  0  0  0  0  0  0  0  0
  2  1  1  6
  2  3  1  0
  2  4  1  0
  2 15  1  0
  4  5  1  6
  4  6  1  0
  4  7  1  0
  7  8  1  6
  7  9  1  0
  7 11  1  0
  9 10  1  0
 10 11  1  0
 11 12  1  6
 11 15  1  0
 12 13  1  0
 13 14  1  0
 15 16  1  1
 15 17  1  0
 17 18  1  0
 18 19  1  0
 19 20  1  6
 19 21  1  0
 21 22  1  0
M  END
