
     RDKit          3D

 30 33  0  0  0  0  0  0  0  0999 V2000
   -7.8140    2.6400   -0.4900 C   0  0  0  0  0  0  0  0  0  0  0  0
   -6.4940    1.9970   -0.4200 C   0  0  0  0  0  0  0  0  0  0  0  0
   -5.3450    2.7760   -0.3650 C   0  0  0  0  0  0  0  0  0  0  0  0
   -4.0920    2.2150   -0.2990 C   0  0  0  0  0  0  0  0  0  0  0  0
   -3.9300    0.8390   -0.2860 C   0  0  0  0  0  0  0  0  0  0  0  0
   -2.5980    0.2780   -0.2160 C   0  0  0  0  0  0  0  0  0  0  0  0
   -2.3460   -1.0920   -0.1980 C   0  0  0  0  0  0  0  0  0  0  0  0
   -1.0710   -1.5830   -0.1310 C   0  0  0  0  0  0  0  0  0  0  0  0
   -0.8150   -2.9560   -0.1200 N   0  0  0  0  0  0  0  0  0  0  0  0
   -0.1980   -3.8340    0.8680 C   0  0  0  0  0  0  0  0  0  0  0  0
   -1.0780   -5.0950    0.8240 C   0  0  0  0  0  0  0  0  0  0  0  0
   -1.8620   -4.9870   -0.4700 C   0  0  0  0  0  0  0  0  0  0  0  0
   -1.1460   -3.8970   -1.2140 C   0  0  0  0  0  0  0  0  0  0  0  0
   -0.0080   -0.6700   -0.0800 C   0  0  0  0  0  0  0  0  0  0  0  0
    1.3580   -1.2240    0.0140 C   0  0  0  0  0  0  0  0  0  0  0  0
    2.3910   -0.2810    0.0130 N   0  0  0  0  0  0  0  0  0  0  0  0
    2.6170    0.5190   -1.1190 C   0  0  0  0  0  0  0  0  0  0  0  0
    2.7780    0.1810    1.2860 C   0  0  0  0  0  0  0  0  0  0  0  0
    3.9450    1.0990    1.2990 C   0  0  0  0  0  0  0  0  0  0  0  0
    4.2660    1.6030    2.4090 O   0  0  0  0  0  0  0  0  0  0  0  0
    4.7010    1.4430    0.2130 O   0  0  0  0  0  0  0  0  0  0  0  0
    5.7980    2.2930    0.2080 C   0  0  0  0  0  0  0  0  0  0  0  0
    5.8350    3.6140    0.0300 C   0  0  0  0  0  0  0  0  0  0  0  0
    7.2380    4.1170    0.1040 C   0  0  0  0  0  0  0  0  0  0  0  0
    8.0190    2.8790    0.3540 C   0  0  0  0  0  0  0  0  0  0  0  0
    7.1770    1.8670    0.4080 C   0  0  0  0  0  0  0  0  0  0  0  0
   -0.3000    0.6780   -0.0990 C   0  0  0  0  0  0  0  0  0  0  0  0
   -1.5630    1.1390   -0.1660 N   0  0  0  0  0  0  0  0  0  0  0  0
   -5.0630    0.0620   -0.3400 C   0  0  0  0  0  0  0  0  0  0  0  0
   -6.3120    0.6410   -0.4050 C   0  0  0  0  0  0  0  0  0  0  0  0
  1  2  1  0
  2  3  2  0
  2 30  1  0
  3  4  1  0
  4  5  2  0
  5  6  1  0
  5 29  1  0
  6  7  2  0
  6 28  1  0
  7  8  1  0
  8  9  1  0
  8 14  2  0
  9 10  1  0
  9 13  1  0
 10 11  1  0
 11 12  1  0
 12 13  1  0
 14 15  1  0
 14 27  1  0
 15 16  1  0
 16 17  1  0
 16 18  1  0
 18 19  1  0
 19 20  2  0
 19 21  1  0
 21 22  1  0
 22 23  2  0
 22 26  1  0
 23 24  1  0
 24 25  1  0
 25 26  2  0
 27 28  2  0
 29 30  2  0
M  END
