
     RDKit          3D

 30 33  0  0  0  0  0  0  0  0999 V2000
    0.3970   -0.3590    2.4580 C   0  0  0  0  0  0  0  0  0  0  0  0
   -0.5300   -0.2380    1.3190 C   0  0  0  0  0  0  0  0  0  0  0  0
   -1.5710   -1.0270    1.0340 N   0  0  0  0  0  0  0  0  0  0  0  0
   -2.2010   -0.6460   -0.0640 N   0  0  0  0  0  0  0  0  0  0  0  0
   -3.3600   -1.3180   -0.5960 C   0  0  0  0  0  0  0  0  0  0  0  0
   -4.6510   -0.7680   -0.0240 C   0  0  0  0  0  0  0  0  0  0  0  0
   -5.8500   -1.4930   -0.6100 C   0  0  0  0  0  0  0  0  0  0  0  0
   -7.0700   -0.8880    0.0130 C   0  0  0  0  0  0  0  0  0  0  0  0
   -7.1570    0.0820    0.9070 C   0  0  0  0  0  0  0  0  0  0  0  0
   -8.5700    0.3780    1.2590 C   0  0  0  0  0  0  0  0  0  0  0  0
   -9.3150   -0.5930    0.4100 C   0  0  0  0  0  0  0  0  0  0  0  0
   -8.4550   -1.3010   -0.2870 C   0  0  0  0  0  0  0  0  0  0  0  0
   -1.5510    0.4210   -0.5030 C   0  0  0  0  0  0  0  0  0  0  0  0
   -1.9020    1.2130   -1.7310 C   0  0  0  0  0  0  0  0  0  0  0  0
   -0.4930    0.7200    0.3280 C   0  0  0  0  0  0  0  0  0  0  0  0
    0.5120    1.8070    0.2640 C   0  0  0  0  0  0  0  0  0  0  0  0
    1.8570    1.2340   -0.1850 C   0  0  0  0  0  0  0  0  0  0  0  0
    2.8230    2.3500   -0.2560 C   0  0  0  0  0  0  0  0  0  0  0  0
    2.3700    3.5310   -0.1830 O   0  0  0  0  0  0  0  0  0  0  0  0
    4.2100    2.0970   -0.4020 N   0  0  0  0  0  0  0  0  0  0  0  0
    5.1410    3.2020   -0.5300 C   0  0  0  0  0  0  0  0  0  0  0  0
    4.7570    0.7900   -0.4290 C   0  0  0  0  0  0  0  0  0  0  0  0
    4.4530   -0.1320   -1.3990 C   0  0  0  0  0  0  0  0  0  0  0  0
    5.0000   -1.3970   -1.4010 C   0  0  0  0  0  0  0  0  0  0  0  0
    5.8920   -1.7760   -0.3990 C   0  0  0  0  0  0  0  0  0  0  0  0
    6.2220   -0.8790    0.5910 C   0  0  0  0  0  0  0  0  0  0  0  0
    5.6570    0.3710    0.5600 C   0  0  0  0  0  0  0  0  0  0  0  0
    7.1910   -1.5770    1.4900 C   0  0  0  0  0  0  0  0  0  0  0  0
    7.7500   -2.6150    0.5240 C   0  0  0  0  0  0  0  0  0  0  0  0
    6.5640   -2.9810   -0.1910 O   0  0  0  0  0  0  0  0  0  0  0  0
  1  2  1  0
  2  3  2  0
  2 15  1  0
  3  4  1  0
  4  5  1  0
  4 13  1  0
  5  6  1  0
  6  7  1  0
  7  8  1  0
  8  9  2  0
  8 12  1  0
  9 10  1  0
 10 11  1  0
 11 12  2  0
 13 14  1  0
 13 15  2  0
 15 16  1  0
 16 17  1  0
 17 18  1  0
 18 19  2  0
 18 20  1  0
 20 21  1  0
 20 22  1  0
 22 23  2  0
 22 27  1  0
 23 24  1  0
 24 25  2  0
 25 26  1  0
 25 30  1  0
 26 27  2  0
 26 28  1  0
 28 29  1  0
 29 30  1  0
M  END
