
     RDKit          3D

 30 33  0  0  0  0  0  0  0  0999 V2000
    4.1280    2.6580   -1.6270 C   0  0  0  0  0  0  0  0  0  0  0  0
    3.7510    2.2850   -0.2580 C   0  0  0  0  0  0  0  0  0  0  0  0
    4.0230    1.0720    0.1970 C   0  0  0  0  0  0  0  0  0  0  0  0
    4.7070    0.1020   -0.6850 C   0  0  0  0  0  0  0  0  0  0  0  0
    3.6380    0.6960    1.5820 C   0  0  0  0  0  0  0  0  0  0  0  0
    2.7360   -0.4310    1.6150 N   0  0  0  0  0  0  0  0  0  0  0  0
    1.2920   -0.1590    1.5730 C   0  0  0  0  0  0  0  0  0  0  0  0
    0.8790   -0.1850    0.1420 C   0  0  0  0  0  0  0  0  0  0  0  0
   -0.5600    0.0820   -0.0960 C   0  0  0  0  0  0  0  0  0  0  0  0
   -1.1160    1.3350   -0.0840 C   0  0  0  0  0  0  0  0  0  0  0  0
   -2.4540    1.5590   -0.2760 C   0  0  0  0  0  0  0  0  0  0  0  0
   -3.2930    0.4570   -0.4980 C   0  0  0  0  0  0  0  0  0  0  0  0
   -4.7240    0.6770   -0.7800 C   0  0  0  0  0  0  0  0  0  0  0  0
   -2.7800   -0.8450   -0.5180 C   0  0  0  0  0  0  0  0  0  0  0  0
   -1.4190   -1.0190   -0.3200 C   0  0  0  0  0  0  0  0  0  0  0  0
   -0.8090   -2.3530   -0.3910 C   0  0  0  0  0  0  0  0  0  0  0  0
   -1.7130   -3.4870   -0.4190 C   0  0  0  0  0  0  0  0  0  0  0  0
   -3.0940   -3.2200   -0.6330 N   0  0  0  0  0  0  0  0  0  0  0  0
   -4.0610   -4.1380   -0.7980 N   0  0  0  0  0  0  0  0  0  0  0  0
   -5.2250   -3.4960   -0.9490 C   0  0  0  0  0  0  0  0  0  0  0  0
   -5.0020   -2.1240   -0.8800 C   0  0  0  0  0  0  0  0  0  0  0  0
   -3.6540   -2.0020   -0.6820 C   0  0  0  0  0  0  0  0  0  0  0  0
   -3.0810    2.8910   -0.2280 C   0  0  0  0  0  0  0  0  0  0  0  0
   -2.2250    3.9880    0.3350 C   0  0  0  0  0  0  0  0  0  0  0  0
   -0.9700    3.4670    1.0020 C   0  0  0  0  0  0  0  0  0  0  0  0
   -0.2330    2.5260    0.1000 C   0  0  0  0  0  0  0  0  0  0  0  0
    3.1990   -1.7720    1.6990 C   0  0  0  0  0  0  0  0  0  0  0  0
    4.4360   -1.9740    1.7560 O   0  0  0  0  0  0  0  0  0  0  0  0
    2.3660   -2.8640    1.7210 O   0  0  0  0  0  0  0  0  0  0  0  0
    2.9060   -4.1800    1.8060 C   0  0  0  0  0  0  0  0  0  0  0  0
  1  2  1  0
  2  3  2  3
  3  4  1  0
  3  5  1  0
  5  6  1  0
  6  7  1  0
  6 27  1  0
  7  8  1  0
  8  9  1  0
  9 10  2  0
  9 15  1  0
 10 11  1  0
 10 26  1  0
 11 12  2  0
 11 23  1  0
 12 13  1  0
 12 14  1  0
 14 15  2  0
 14 22  1  0
 15 16  1  0
 16 17  1  0
 17 18  1  0
 18 19  1  0
 18 22  1  0
 19 20  2  0
 20 21  1  0
 21 22  2  0
 23 24  1  0
 24 25  1  0
 25 26  1  0
 27 28  2  0
 27 29  1  0
 29 30  1  0
M  END
