
     RDKit          3D

 29 33  0  0  0  0  0  0  0  0999 V2000
   -8.1000   -0.4410   -0.8320 N   0  0  0  0  0  0  0  0  0  0  0  0
   -6.8290   -0.7240   -0.8910 C   0  0  0  0  0  0  0  0  0  0  0  0
   -6.2070   -1.8420   -1.4610 N   0  0  0  0  0  0  0  0  0  0  0  0
   -4.8050   -1.6630   -1.2470 C   0  0  0  0  0  0  0  0  0  0  0  0
   -3.9740   -2.5040   -1.6440 O   0  0  0  0  0  0  0  0  0  0  0  0
   -4.5480   -0.4250   -0.5380 C   0  0  0  0  0  0  0  0  0  0  0  0
   -3.3870    0.2250   -0.0770 C   0  0  0  0  0  0  0  0  0  0  0  0
   -2.1590   -0.4000   -0.3440 N   0  0  0  0  0  0  0  0  0  0  0  0
   -0.9100    0.0400    0.1060 C   0  0  0  0  0  0  0  0  0  0  0  0
   -0.7910    1.0530    0.8120 O   0  0  0  0  0  0  0  0  0  0  0  0
    0.3030   -0.7690   -0.2970 C   0  0  0  0  0  0  0  0  0  0  0  0
    1.4880   -0.1260    0.3140 C   0  0  0  0  0  0  0  0  0  0  0  0
    1.4890    0.7070    1.3900 N   0  0  0  0  0  0  0  0  0  0  0  0
    2.7140    1.0890    1.6630 N   0  0  0  0  0  0  0  0  0  0  0  0
    3.5900    0.5330    0.7860 C   0  0  0  0  0  0  0  0  0  0  0  0
    2.8120   -0.2280   -0.0570 C   0  0  0  0  0  0  0  0  0  0  0  0
    3.7520   -0.8550   -1.0310 C   0  0  0  0  0  0  0  0  0  0  0  0
    5.0860   -0.3650   -0.6430 C   0  0  0  0  0  0  0  0  0  0  0  0
    6.3420   -0.6060   -1.1840 C   0  0  0  0  0  0  0  0  0  0  0  0
    7.4850   -0.0230   -0.6390 C   0  0  0  0  0  0  0  0  0  0  0  0
    8.6950   -0.2790   -1.1900 F   0  0  0  0  0  0  0  0  0  0  0  0
    7.4020    0.8110    0.4530 C   0  0  0  0  0  0  0  0  0  0  0  0
    6.1510    1.0430    0.9810 C   0  0  0  0  0  0  0  0  0  0  0  0
    5.0020    0.4690    0.4500 C   0  0  0  0  0  0  0  0  0  0  0  0
   -3.5090    1.4140    0.5800 C   0  0  0  0  0  0  0  0  0  0  0  0
   -4.7720    1.9850    0.7940 C   0  0  0  0  0  0  0  0  0  0  0  0
   -4.8420    3.1600    1.4510 F   0  0  0  0  0  0  0  0  0  0  0  0
   -5.8690    1.3310    0.3350 C   0  0  0  0  0  0  0  0  0  0  0  0
   -5.7790    0.1400   -0.3260 C   0  0  0  0  0  0  0  0  0  0  0  0
  1  2  2  0
  2  3  1  0
  2 29  1  0
  3  4  1  0
  4  5  2  0
  4  6  1  0
  6  7  2  0
  6 29  1  0
  7  8  1  0
  7 25  1  0
  8  9  1  0
  9 10  2  0
  9 11  1  0
 11 12  1  0
 12 13  2  0
 12 16  1  0
 13 14  1  0
 14 15  1  0
 15 16  2  0
 15 24  1  0
 16 17  1  0
 17 18  1  0
 18 19  2  0
 18 24  1  0
 19 20  1  0
 20 21  1  0
 20 22  2  0
 22 23  1  0
 23 24  2  0
 25 26  2  0
 26 27  1  0
 26 28  1  0
 28 29  2  0
M  END
