
     RDKit          3D

 29 32  0  0  0  0  0  0  0  0999 V2000
   -6.1390    1.7940    1.1680 C   0  0  0  0  0  0  0  0  0  0  0  0
   -6.1310    0.4520    0.5220 N   0  0  0  0  0  0  0  0  0  0  0  0
   -4.8440   -0.1290    0.5580 C   0  0  1  0  0  0  0  0  0  0  0  0
   -4.4630   -0.6560    1.9450 C   0  0  0  0  0  0  0  0  0  0  0  0
   -4.4610   -0.9990   -0.5460 C   0  0  0  0  0  0  0  0  0  0  0  0
   -5.4400   -1.4450   -1.4120 C   0  0  0  0  0  0  0  0  0  0  0  0
   -7.1650   -1.2790   -1.1160 Cl  0  0  0  0  0  0  0  0  0  0  0  0
   -5.1320   -2.1840   -2.5370 C   0  0  0  0  0  0  0  0  0  0  0  0
   -3.8300   -2.5080   -2.8450 C   0  0  0  0  0  0  0  0  0  0  0  0
   -2.8400   -2.0890   -2.0280 C   0  0  0  0  0  0  0  0  0  0  0  0
   -1.4960   -2.3540   -2.2590 F   0  0  0  0  0  0  0  0  0  0  0  0
   -3.1560   -1.3230   -0.8590 C   0  0  0  0  0  0  0  0  0  0  0  0
   -1.9440   -0.8250   -0.2090 C   0  0  0  0  0  0  0  0  0  0  0  0
   -1.5580    0.5480   -0.7340 C   0  0  0  0  0  0  0  0  0  0  0  0
   -0.1560    0.8250   -0.2710 C   0  0  0  0  0  0  0  0  0  0  0  0
    0.3940    1.2610    0.9030 C   0  0  0  0  0  0  0  0  0  0  0  0
    1.7490    1.4600    0.9100 C   0  0  0  0  0  0  0  0  0  0  0  0
    2.4710    1.2380   -0.1820 C   0  0  0  0  0  0  0  0  0  0  0  0
    1.2740    0.7140   -1.3260 S   0  0  0  0  0  0  0  0  0  0  0  0
    3.9180    1.5410    0.0050 C   0  0  2  0  0  0  0  0  0  0  0  0
    4.7970    0.3870   -0.2380 C   0  0  1  0  0  0  0  0  0  0  0  0
    4.2110   -0.9450    0.0970 C   0  0  0  0  0  0  0  0  0  0  0  0
    5.2830   -1.8470    0.6460 C   0  0  0  0  0  0  0  0  0  0  0  0
    6.9080   -1.4190    0.0620 S   0  0  0  0  0  0  0  0  0  0  0  0
    7.8600   -1.1270    1.2030 O   0  0  0  0  0  0  0  0  0  0  0  0
    6.9390   -0.1730   -1.2100 C   0  0  0  0  0  0  0  0  0  0  0  0
    5.5290    0.3190   -1.5340 C   0  0  0  0  0  0  0  0  0  0  0  0
    3.9710    2.2040    1.3280 C   0  0  0  0  0  0  0  0  0  0  0  0
    2.7210    1.8260    2.0350 C   0  0  0  0  0  0  0  0  0  0  0  0
  1  2  1  0
  2  3  1  0
  3  4  1  1
  3  5  1  0
  5  6  2  0
  5 12  1  0
  6  7  1  0
  6  8  1  0
  8  9  2  0
  9 10  1  0
 10 11  1  0
 10 12  2  0
 12 13  1  0
 13 14  1  0
 14 15  1  0
 15 16  2  0
 15 19  1  0
 16 17  1  0
 17 18  2  0
 17 29  1  0
 18 19  1  0
 18 20  1  0
 20 21  1  0
 20 28  1  1
 21 22  1  6
 21 27  1  0
 22 23  1  0
 24 23  1  1
 24 25  2  0
 24 26  1  0
 26 27  1  0
 28 29  1  0
M  CHG  1   2   1
M  END
