
     RDKit          3D

 29 32  0  0  0  0  0  0  0  0999 V2000
    4.1410   -2.6270   -1.7250 C   0  0  0  0  0  0  0  0  0  0  0  0
    5.1950   -2.5510   -0.7650 N   0  0  0  0  0  0  0  0  0  0  0  0
    5.5730   -1.5350   -0.1080 C   0  0  0  0  0  0  0  0  0  0  0  0
    6.7000   -1.6710    0.8510 C   0  0  1  0  0  0  0  0  0  0  0  0
    6.2840   -1.3420    2.1330 F   0  0  0  0  0  0  0  0  0  0  0  0
    7.2270   -2.9310    0.8190 F   0  0  0  0  0  0  0  0  0  0  0  0
    4.9520   -0.2990   -0.2680 N   0  0  0  0  0  0  0  0  0  0  0  0
    5.6300    0.8140   -0.8760 C   0  0  0  0  0  0  0  0  0  0  0  0
    4.6840    1.7170   -1.5930 C   0  0  0  0  0  0  0  0  0  0  0  0
    3.5420    2.0530   -0.9150 O   0  0  0  0  0  0  0  0  0  0  0  0
    3.4880    1.4450    0.3400 C   0  0  1  0  0  0  0  0  0  0  0  0
    2.4800    2.0360    1.2420 C   0  0  0  0  0  0  0  0  0  0  0  0
    1.1330    2.0560    0.7850 N   0  0  0  0  0  0  0  0  0  0  0  0
    0.3390    0.9300    0.5330 C   0  0  0  0  0  0  0  0  0  0  0  0
    0.7730   -0.2210    0.7250 O   0  0  0  0  0  0  0  0  0  0  0  0
   -0.9820    1.1280    0.0500 N   0  0  0  0  0  0  0  0  0  0  0  0
   -1.8240   -0.0210   -0.2200 C   0  0  2  0  0  0  0  0  0  0  0  0
   -2.0850    0.0030   -1.6690 C   0  0  0  0  0  0  0  0  0  0  0  0
   -3.2880   -0.0330   -2.1590 C   0  0  0  0  0  0  0  0  0  0  0  0
   -4.4620   -0.0970   -1.3160 C   0  0  0  0  0  0  0  0  0  0  0  0
   -5.7980   -0.1450   -1.5530 N   0  0  0  0  0  0  0  0  0  0  0  0
   -6.4880   -0.1980   -0.4010 C   0  0  0  0  0  0  0  0  0  0  0  0
   -5.5980   -0.1870    0.6400 C   0  0  0  0  0  0  0  0  0  0  0  0
   -4.3230   -0.1230    0.0500 C   0  0  0  0  0  0  0  0  0  0  0  0
   -2.9990   -0.0840    0.6760 C   0  0  0  0  0  0  0  0  0  0  0  0
   -6.3050   -0.2470    1.9420 C   0  0  0  0  0  0  0  0  0  0  0  0
   -7.6170   -0.8960    1.5240 C   0  0  0  0  0  0  0  0  0  0  0  0
   -7.8550   -0.2640    0.1940 C   0  0  0  0  0  0  0  0  0  0  0  0
    3.5480   -0.0310    0.1730 C   0  0  0  0  0  0  0  0  0  0  0  0
  1  2  1  0
  2  3  2  3
  3  4  1  0
  3  7  1  0
  4  5  1  1
  4  6  1  0
  7  8  1  0
  7 29  1  0
  8  9  1  0
  9 10  1  0
 10 11  1  0
 11 12  1  6
 11 29  1  0
 12 13  1  0
 13 14  1  0
 14 15  2  0
 14 16  1  0
 17 16  1  1
 17 18  1  0
 17 25  1  0
 18 19  2  0
 19 20  1  0
 20 21  1  0
 20 24  2  0
 21 22  1  0
 22 23  2  0
 22 28  1  0
 23 24  1  0
 23 26  1  0
 24 25  1  0
 26 27  1  0
 27 28  1  0
M  END
