
     RDKit          3D

 29 32  0  0  0  0  0  0  0  0999 V2000
    7.4730   -1.6080   -0.0890 C   0  0  0  0  0  0  0  0  0  0  0  0
    6.9220   -0.2260   -0.2680 C   0  0  0  0  0  0  0  0  0  0  0  0
    7.8040    0.8680   -0.3870 C   0  0  0  0  0  0  0  0  0  0  0  0
    9.1080    0.6470   -0.3680 F   0  0  0  0  0  0  0  0  0  0  0  0
    7.3320    2.1360   -0.5140 C   0  0  0  0  0  0  0  0  0  0  0  0
    5.9730    2.3820   -0.5300 C   0  0  0  0  0  0  0  0  0  0  0  0
    5.4420    4.0090   -0.7760 Cl  0  0  0  0  0  0  0  0  0  0  0  0
    5.1300    1.3070   -0.4160 C   0  0  0  0  0  0  0  0  0  0  0  0
    5.5880    0.0120   -0.2860 C   0  0  0  0  0  0  0  0  0  0  0  0
    4.6090   -1.0910   -0.3620 C   0  0  1  0  0  0  0  0  0  0  0  0
    5.1380   -2.3010   -0.7000 O   0  0  0  0  0  0  0  0  0  0  0  0
    3.7290   -1.0200    0.8230 C   0  0  0  0  0  0  0  0  0  0  0  0
    2.3810   -2.2550    0.8520 S   0  0  0  0  0  0  0  0  0  0  0  0
    0.9010   -1.4560    0.4500 C   0  0  0  0  0  0  0  0  0  0  0  0
    0.1590   -1.0640   -1.1800 S   0  0  0  0  0  0  0  0  0  0  0  0
   -1.2370   -0.2370   -0.6220 C   0  0  0  0  0  0  0  0  0  0  0  0
   -1.1170   -0.2760    0.7400 C   0  0  0  0  0  0  0  0  0  0  0  0
   -0.0710   -0.8780    1.2880 C   0  0  0  0  0  0  0  0  0  0  0  0
    0.1790   -1.0590    2.7920 C   0  0  0  0  0  0  0  0  0  0  0  0
   -2.2200    0.4710    1.4740 C   0  0  0  0  0  0  0  0  0  0  0  0
   -2.6190    1.6380    0.6360 C   0  0  0  0  0  0  0  0  0  0  0  0
   -3.3470    1.1030   -0.5830 C   0  0  2  0  0  0  0  0  0  0  0  0
   -3.8890    2.2470   -1.3870 C   0  0  0  0  0  0  0  0  0  0  0  0
   -4.4020    0.0970   -0.1880 C   0  0  0  0  0  0  0  0  0  0  0  0
   -5.1830   -0.3240   -1.3150 N   0  0  0  0  0  0  0  0  0  0  0  0
   -6.2750   -1.1360   -0.7680 C   0  0  1  0  0  0  0  0  0  0  0  0
   -6.9960   -0.5340    0.4120 C   0  0  0  0  0  0  0  0  0  0  0  0
   -7.6650   -0.6710   -0.9430 C   0  0  0  0  0  0  0  0  0  0  0  0
   -2.3000    0.3890   -1.4130 C   0  0  0  0  0  0  0  0  0  0  0  0
  1  2  1  0
  2  3  2  0
  2  9  1  0
  3  4  1  0
  3  5  1  0
  5  6  2  0
  6  7  1  0
  6  8  1  0
  8  9  2  0
  9 10  1  0
 10 11  1  1
 10 12  1  0
 12 13  1  0
 13 14  1  0
 14 15  1  0
 14 18  2  0
 15 16  1  0
 16 17  2  0
 16 29  1  0
 17 18  1  0
 17 20  1  0
 18 19  1  0
 20 21  1  0
 21 22  1  0
 22 23  1  6
 22 24  1  0
 22 29  1  0
 24 25  1  0
 26 25  1  6
 26 27  1  0
 26 28  1  0
 27 28  1  0
M  CHG  1  25   1
M  END
