
     RDKit          3D

 29 31  0  0  0  0  0  0  0  0999 V2000
   -0.4160   -3.8470   -2.4310 O   0  0  0  0  0  0  0  0  0  0  0  0
   -0.6210   -2.7680   -1.6750 C   0  0  0  0  0  0  0  0  0  0  0  0
   -1.7920   -2.9250   -0.8420 C   0  0  0  0  0  0  0  0  0  0  0  0
   -2.4800   -2.1750   -0.0060 C   0  0  0  0  0  0  0  0  0  0  0  0
   -2.1390   -0.8060    0.3010 N   0  0  0  0  0  0  0  0  0  0  0  0
   -1.0290   -0.6270    1.2370 C   0  0  0  0  0  0  0  0  0  0  0  0
   -0.3940    0.6020    1.2450 C   0  0  0  0  0  0  0  0  0  0  0  0
   -0.8330    1.6090    0.4120 C   0  0  0  0  0  0  0  0  0  0  0  0
   -0.8030    3.0130    0.5610 C   0  0  0  0  0  0  0  0  0  0  0  0
    0.0460    3.8550   -0.1310 C   0  0  0  0  0  0  0  0  0  0  0  0
    1.3760    3.8810   -0.1950 N   0  0  0  0  0  0  0  0  0  0  0  0
    2.3510    3.5300    0.6520 C   0  0  0  0  0  0  0  0  0  0  0  0
    2.8050    2.2530    0.9440 C   0  0  0  0  0  0  0  0  0  0  0  0
    3.3130    1.2630    0.1350 C   0  0  0  0  0  0  0  0  0  0  0  0
    2.7300    0.7690   -1.0480 C   0  0  0  0  0  0  0  0  0  0  0  0
    1.6420    0.0140   -1.1170 N   0  0  0  0  0  0  0  0  0  0  0  0
    1.4690   -1.3370   -1.1190 C   0  0  0  0  0  0  0  0  0  0  0  0
    2.3580   -2.0560   -0.3270 C   0  0  0  0  0  0  0  0  0  0  0  0
    2.4160   -2.0850    1.0460 C   0  0  0  0  0  0  0  0  0  0  0  0
    1.5770   -2.5780    1.9720 N   0  0  0  0  0  0  0  0  0  0  0  0
    0.2410   -2.6260    2.0160 C   0  0  0  0  0  0  0  0  0  0  0  0
   -0.2810   -3.8620    1.8790 O   0  0  0  0  0  0  0  0  0  0  0  0
   -0.7200   -1.6720    2.1760 C   0  0  0  0  0  0  0  0  0  0  0  0
    0.3830   -1.8130   -1.9390 N   0  0  0  0  0  0  0  0  0  0  0  0
   -1.5350    1.1130   -0.8680 C   0  0  0  0  0  0  0  0  0  0  0  0
   -2.7640    0.3540   -0.2670 C   0  0  1  0  0  0  0  0  0  0  0  0
   -3.7810    0.3060   -1.2880 C   0  0  1  0  0  0  0  0  0  0  0  0
   -4.9360   -0.3690   -0.9670 F   0  0  0  0  0  0  0  0  0  0  0  0
   -4.1170    1.5870   -1.6660 F   0  0  0  0  0  0  0  0  0  0  0  0
  1  2  2  0
  2  3  1  0
  2 24  1  0
  3  4  2  0
  4  5  1  0
  5  6  1  0
  5 26  1  0
  6  7  1  0
  6 23  2  0
  7  8  2  0
  8  9  1  0
  8 25  1  0
  9 10  2  0
 10 11  1  0
 11 12  1  0
 12 13  2  0
 13 14  1  0
 14 15  2  0
 15 16  1  0
 16 17  2  0
 17 18  1  0
 17 24  1  0
 18 19  2  0
 19 20  1  0
 20 21  1  0
 21 22  2  0
 21 23  1  0
 26 25  1  6
 26 27  1  0
 27 28  1  1
 27 29  1  0
M  END
