
     RDKit          3D

 35 38  0  0  0  0  0  0  0  0999 V2000
  -10.4520   -0.2030   -3.1270 C   0  0  0  0  0  0  0  0  0  0  0  0
   -9.1460    0.3050   -2.6820 C   0  0  0  0  0  0  0  0  0  0  0  0
   -8.1200   -0.5140   -2.5310 C   0  0  0  0  0  0  0  0  0  0  0  0
   -6.8120   -0.0440   -2.0920 C   0  0  0  0  0  0  0  0  0  0  0  0
   -5.8090   -0.8830   -1.9500 C   0  0  0  0  0  0  0  0  0  0  0  0
   -4.4600   -0.4030   -1.4980 C   0  0  1  0  0  0  0  0  0  0  0  0
   -4.6470    0.7790   -0.5990 C   0  0  0  0  0  0  0  0  0  0  0  0
   -3.6920   -1.4650   -0.9460 N   0  0  0  0  0  0  0  0  0  0  0  0
   -2.6470   -1.0470   -0.0200 C   0  0  0  0  0  0  0  0  0  0  0  0
   -3.1240   -0.9730    1.3780 C   0  0  0  0  0  0  0  0  0  0  0  0
   -4.4620   -1.2790    1.7190 C   0  0  0  0  0  0  0  0  0  0  0  0
   -4.5270   -1.1000    3.0300 N   0  0  0  0  0  0  0  0  0  0  0  0
   -3.3620   -0.7190    3.5020 N   0  0  0  0  0  0  0  0  0  0  0  0
   -2.4340   -0.6220    2.4990 C   0  0  0  0  0  0  0  0  0  0  0  0
   -1.0580   -0.2050    2.6770 C   0  0  0  0  0  0  0  0  0  0  0  0
   -0.6500    0.2400    3.9510 C   0  0  0  0  0  0  0  0  0  0  0  0
    0.6430    0.6230    4.1560 C   0  0  0  0  0  0  0  0  0  0  0  0
    1.6130    0.6070    3.1760 C   0  0  0  0  0  0  0  0  0  0  0  0
    2.9240    0.9180    3.0910 N   0  0  0  0  0  0  0  0  0  0  0  0
    3.3890    0.6990    1.8320 C   0  0  0  0  0  0  0  0  0  0  0  0
    4.6390    0.8630    1.2580 C   0  0  0  0  0  0  0  0  0  0  0  0
    5.7230    1.3760    2.1480 C   0  0  0  0  0  0  0  0  0  0  0  0
    4.8270    0.5580   -0.0590 C   0  0  0  0  0  0  0  0  0  0  0  0
    6.1620    0.7390   -0.6620 C   0  0  0  0  0  0  0  0  0  0  0  0
    7.1330   -0.3290   -0.2680 C   0  0  0  0  0  0  0  0  0  0  0  0
    8.4730   -0.1240   -0.8880 C   0  0  0  0  0  0  0  0  0  0  0  0
    9.4130   -0.9310   -0.6650 O   0  0  0  0  0  0  0  0  0  0  0  0
    8.7620    0.9420   -1.7280 O   0  0  0  0  0  0  0  0  0  0  0  0
   10.0530    1.1180   -2.3100 C   0  0  0  0  0  0  0  0  0  0  0  0
    3.7650    0.0800   -0.8370 C   0  0  0  0  0  0  0  0  0  0  0  0
    3.9950   -0.2240   -2.1890 N   0  0  0  0  0  0  0  0  0  0  0  0
    2.5330   -0.0730   -0.2370 C   0  0  0  0  0  0  0  0  0  0  0  0
    2.3100    0.2260    1.0920 C   0  0  0  0  0  0  0  0  0  0  0  0
    1.2250    0.1750    1.9310 C   0  0  0  0  0  0  0  0  0  0  0  0
   -0.1010   -0.2240    1.6990 C   0  0  0  0  0  0  0  0  0  0  0  0
  1  2  1  0
  2  3  2  3
  3  4  1  0
  4  5  2  3
  5  6  1  0
  6  7  1  1
  6  8  1  0
  8  9  1  0
  9 10  1  0
 10 11  1  0
 10 14  2  0
 11 12  2  0
 12 13  1  0
 13 14  1  0
 14 15  1  0
 15 16  2  0
 15 35  1  0
 16 17  1  0
 17 18  2  0
 18 19  1  0
 18 34  1  0
 19 20  1  0
 20 21  2  0
 20 33  1  0
 21 22  1  0
 21 23  1  0
 23 24  1  0
 23 30  2  0
 24 25  1  0
 25 26  1  0
 26 27  2  0
 26 28  1  0
 28 29  1  0
 30 31  1  0
 30 32  1  0
 32 33  2  0
 33 34  1  0
 34 35  2  0
M  CHG  1   8   1
M  END
