
     RDKit          3D

 34 35  0  0  0  0  0  0  0  0999 V2000
   -1.9910    2.3580   -1.3160 C   0  0  0  0  0  0  0  0  0  0  0  0
   -2.8710    1.4400   -0.4590 C   0  0  0  0  0  0  0  0  0  0  0  0
   -2.2710    0.3500    0.0630 C   0  0  0  0  0  0  0  0  0  0  0  0
   -0.8620    0.1960   -0.2350 C   0  0  0  0  0  0  0  0  0  0  0  0
    0.1110   -0.5770    0.0100 C   0  0  0  0  0  0  0  0  0  0  0  0
    0.3740   -1.7670    0.7450 C   0  0  0  0  0  0  0  0  0  0  0  0
    1.6550   -2.2620    0.7260 C   0  0  0  0  0  0  0  0  0  0  0  0
    2.6430   -1.5770   -0.0060 N   0  0  0  0  0  0  0  0  0  0  0  0
    3.3810   -2.1190   -1.1120 C   0  0  0  0  0  0  0  0  0  0  0  0
    3.1440   -3.2700   -1.4660 O   0  0  0  0  0  0  0  0  0  0  0  0
    4.3850   -1.2960   -1.7820 C   0  0  2  0  0  0  0  0  0  0  0  0
    4.8750   -1.9990   -2.9780 N   0  0  0  0  0  0  0  0  0  0  0  0
    5.5900   -0.9520   -0.9770 C   0  0  1  0  0  0  0  0  0  0  0  0
    6.5370   -0.1370   -1.7000 N   0  0  0  0  0  0  0  0  0  0  0  0
    7.3180    0.7020   -0.9180 C   0  0  0  0  0  0  0  0  0  0  0  0
    8.5340    1.0090   -1.1630 O   0  0  0  0  0  0  0  0  0  0  0  0
    6.6360    1.2620    0.2750 C   0  0  2  0  0  0  0  0  0  0  0  0
    7.5490    1.1650    1.4850 C   0  0  0  0  0  0  0  0  0  0  0  0
    5.2590    0.0970    0.4610 S   0  0  0  0  0  0  0  0  0  0  0  0
    1.9110   -3.4830    1.5010 C   0  0  2  0  0  0  0  0  0  0  0  0
    2.7500   -3.1670    2.5310 F   0  0  0  0  0  0  0  0  0  0  0  0
    2.5550   -4.4370    0.7310 F   0  0  0  0  0  0  0  0  0  0  0  0
    0.7740   -4.0490    2.0060 F   0  0  0  0  0  0  0  0  0  0  0  0
   -3.0070   -0.6920    0.7070 C   0  0  0  0  0  0  0  0  0  0  0  0
   -2.3470   -1.6580    1.2110 O   0  0  0  0  0  0  0  0  0  0  0  0
   -4.4300   -0.7870    0.8440 N   0  0  0  0  0  0  0  0  0  0  0  0
   -4.9240   -1.9320    1.5370 N   0  0  0  0  0  0  0  0  0  0  0  0
   -6.1830   -2.4460    1.1090 C   0  0  0  0  0  0  0  0  0  0  0  0
   -7.1170   -1.6420    0.7190 N   0  0  0  0  0  0  0  0  0  0  0  0
   -4.1650    1.9250   -0.2190 N   0  0  0  0  0  0  0  0  0  0  0  0
   -4.6200    2.4760    1.0570 C   0  0  0  0  0  0  0  0  0  0  0  0
   -5.3660    3.7340    0.6440 C   0  0  0  0  0  0  0  0  0  0  0  0
   -5.7070    3.5110   -0.7990 C   0  0  0  0  0  0  0  0  0  0  0  0
   -5.2580    2.0890   -1.1340 C   0  0  0  0  0  0  0  0  0  0  0  0
  1  2  1  0
  2  3  2  3
  2 30  1  0
  3  4  1  0
  3 24  1  0
  4  5  2  3
  5  6  1  0
  6  7  2  3
  7  8  1  0
  7 20  1  0
  8  9  1  0
  9 10  2  0
  9 11  1  0
 11 12  1  6
 11 13  1  0
 13 14  1  6
 13 19  1  0
 14 15  1  0
 15 16  2  0
 15 17  1  0
 17 18  1  1
 17 19  1  0
 20 21  1  1
 20 22  1  0
 20 23  1  0
 24 25  2  0
 24 26  1  0
 26 27  1  0
 27 28  1  0
 28 29  2  0
 30 31  1  0
 30 34  1  0
 31 32  1  0
 32 33  1  0
 33 34  1  0
M  CHG  2  12   1  29   1
M  END
