
     RDKit          3D

 34 37  0  0  0  0  0  0  0  0999 V2000
   -4.6430    1.8760    2.0120 C   0  0  0  0  0  0  0  0  0  0  0  0
   -4.7280    1.5950    0.7380 O   0  0  0  0  0  0  0  0  0  0  0  0
   -4.8150    1.3240   -0.5150 C   0  0  0  0  0  0  0  0  0  0  0  0
   -5.8490    2.2070   -1.1760 C   0  0  0  0  0  0  0  0  0  0  0  0
   -6.0190    2.0190   -2.4860 C   0  0  0  0  0  0  0  0  0  0  0  0
   -5.3780    1.1490   -3.2820 C   0  0  0  0  0  0  0  0  0  0  0  0
   -4.4050    0.3250   -2.6740 C   0  0  0  0  0  0  0  0  0  0  0  0
   -4.1390    0.4190   -1.2840 C   0  0  0  0  0  0  0  0  0  0  0  0
   -3.3240   -0.5990   -0.6240 C   0  0  2  0  0  0  0  0  0  0  0  0
   -2.7230   -0.0560    0.5520 N   0  0  0  0  0  0  0  0  0  0  0  0
   -2.2670   -1.3450   -1.4790 C   0  0  0  0  0  0  0  0  0  0  0  0
   -1.7910   -2.4150   -0.6360 N   0  0  0  0  0  0  0  0  0  0  0  0
   -0.7780   -2.6330    0.2790 C   0  0  0  0  0  0  0  0  0  0  0  0
   -0.9540   -3.7490    1.1640 C   0  0  0  0  0  0  0  0  0  0  0  0
    0.1030   -4.1340    2.0350 C   0  0  0  0  0  0  0  0  0  0  0  0
   -0.1500   -5.3010    2.9260 C   0  0  0  0  0  0  0  0  0  0  0  0
    1.1310   -3.4110    1.9360 N   0  0  0  0  0  0  0  0  0  0  0  0
    1.4000   -2.3950    1.1910 C   0  0  0  0  0  0  0  0  0  0  0  0
    2.3240   -1.5210    0.8500 N   0  0  0  0  0  0  0  0  0  0  0  0
    2.2220   -0.7050    0.0710 C   0  0  0  0  0  0  0  0  0  0  0  0
    3.0650    0.3320   -0.5790 N   0  0  0  0  0  0  0  0  0  0  0  0
    4.4760    0.3420   -0.2360 C   0  0  2  0  0  0  0  0  0  0  0  0
    4.7520    0.0390    1.1630 C   0  0  0  0  0  0  0  0  0  0  0  0
    4.1680    0.9190    2.1390 C   0  0  0  0  0  0  0  0  0  0  0  0
    3.6660    1.6440    2.9380 N   0  0  0  0  0  0  0  0  0  0  0  0
    5.1070    1.6200   -0.7320 C   0  0  0  0  0  0  0  0  0  0  0  0
    4.9680    1.8890   -2.0950 C   0  0  0  0  0  0  0  0  0  0  0  0
    5.4720    3.0480   -2.6140 C   0  0  0  0  0  0  0  0  0  0  0  0
    6.1140    3.9730   -1.7980 C   0  0  0  0  0  0  0  0  0  0  0  0
    6.2620    3.7280   -0.4430 C   0  0  0  0  0  0  0  0  0  0  0  0
    7.0330    4.8770    0.5830 Cl  0  0  0  0  0  0  0  0  0  0  0  0
    5.7250    2.4890    0.0650 C   0  0  0  0  0  0  0  0  0  0  0  0
    0.8390   -0.8850   -0.4460 N   0  0  0  0  0  0  0  0  0  0  0  0
    0.4140   -1.9780    0.3250 N   0  0  0  0  0  0  0  0  0  0  0  0
  1  2  1  0
  2  3  1  0
  3  4  2  0
  3  8  1  0
  4  5  1  0
  5  6  2  0
  6  7  1  0
  7  8  2  0
  8  9  1  0
  9 10  1  1
  9 11  1  0
 11 12  1  0
 12 13  1  0
 13 14  2  0
 13 34  1  0
 14 15  1  0
 15 16  1  0
 15 17  2  0
 17 18  1  0
 18 19  2  0
 18 34  1  0
 19 20  1  0
 20 21  1  0
 20 33  2  0
 21 22  1  0
 22 23  1  1
 22 26  1  0
 23 24  1  0
 24 25  3  0
 26 27  2  0
 26 32  1  0
 27 28  1  0
 28 29  2  0
 29 30  1  0
 30 31  1  0
 30 32  2  0
 33 34  1  0
M  CHG  1  10   1
M  END
