
     RDKit          3D

 34 34  0  0  0  0  0  0  0  0999 V2000
    8.3930   -2.5990   -0.1820 C   0  0  0  0  0  0  0  0  0  0  0  0
    7.3160   -1.6620    0.1360 C   0  0  0  0  0  0  0  0  0  0  0  0
    6.3020   -2.0290    0.9480 F   0  0  0  0  0  0  0  0  0  0  0  0
    7.3330   -0.3700   -0.4020 C   0  0  0  0  0  0  0  0  0  0  0  0
    8.4490   -0.1320   -1.2240 C   0  0  0  0  0  0  0  0  0  0  0  0
    8.9610    0.8110   -1.9420 C   0  0  0  0  0  0  0  0  0  0  0  0
    8.6140    2.0590   -2.2260 F   0  0  0  0  0  0  0  0  0  0  0  0
   10.1930    0.5060   -2.6220 F   0  0  0  0  0  0  0  0  0  0  0  0
    6.2220    0.3400    0.0290 N   0  0  0  0  0  0  0  0  0  0  0  0
    5.7670    1.6420   -0.2180 C   0  0  0  0  0  0  0  0  0  0  0  0
    6.4420    2.3550   -0.9610 O   0  0  0  0  0  0  0  0  0  0  0  0
    4.5240    2.2280    0.3550 C   0  0  0  0  0  0  0  0  0  0  0  0
    3.5370    1.1760    1.3650 S   0  0  0  0  0  0  0  0  0  0  0  0
    2.6600   -0.1430    0.5560 C   0  0  0  0  0  0  0  0  0  0  0  0
    1.5870    0.2860   -0.3680 C   0  0  0  0  0  0  0  0  0  0  0  0
    0.5260    1.0960    0.1840 N   0  0  1  0  0  0  0  0  0  0  0  0
   -0.0350    1.7860   -0.9510 C   0  0  0  0  0  0  0  0  0  0  0  0
   -1.3270    2.4600   -0.7500 C   0  0  0  0  0  0  0  0  0  0  0  0
   -2.2480    1.4510   -0.2070 N   0  0  0  0  0  0  0  0  0  0  0  0
   -3.4870    1.1990   -0.8570 C   0  0  0  0  0  0  0  0  0  0  0  0
   -3.7070    1.8620   -1.9340 O   0  0  0  0  0  0  0  0  0  0  0  0
   -4.5290    0.2750   -0.4340 C   0  0  1  0  0  0  0  0  0  0  0  0
   -5.1480    0.9060    0.8480 C   0  0  0  0  0  0  0  0  0  0  0  0
   -5.6350    0.2140   -1.3640 N   0  0  0  0  0  0  0  0  0  0  0  0
   -6.3980   -0.9550   -1.4900 C   0  0  0  0  0  0  0  0  0  0  0  0
   -6.1530   -1.9770   -0.7900 O   0  0  0  0  0  0  0  0  0  0  0  0
   -7.5000   -1.1010   -2.3940 N   0  0  0  0  0  0  0  0  0  0  0  0
   -8.3050   -2.3050   -2.4860 C   0  0  0  0  0  0  0  0  0  0  0  0
   -8.9700   -2.4690   -1.2030 N   0  0  0  0  0  0  0  0  0  0  0  0
   -1.7970    0.7810    0.9660 C   0  0  0  0  0  0  0  0  0  0  0  0
   -0.3530    0.3890    1.0170 C   0  0  2  0  0  0  0  0  0  0  0  0
    0.0210    0.5650    2.5010 C   0  0  0  0  0  0  0  0  0  0  0  0
   -0.9220   -0.2150    3.3990 C   0  0  0  0  0  0  0  0  0  0  0  0
   -0.8160   -1.6180    3.0250 N   0  0  0  0  0  0  0  0  0  0  0  0
  1  2  1  0
  2  3  1  0
  2  4  2  3
  4  5  1  0
  4  9  1  0
  5  6  2  3
  6  7  1  0
  6  8  1  0
  9 10  1  0
 10 11  2  0
 10 12  1  0
 12 13  1  0
 13 14  1  0
 14 15  1  0
 16 15  1  6
 16 17  1  0
 16 31  1  0
 17 18  1  0
 18 19  1  0
 19 20  1  0
 19 30  1  0
 20 21  2  0
 20 22  1  0
 22 23  1  1
 22 24  1  0
 24 25  1  0
 25 26  2  0
 25 27  1  0
 27 28  1  0
 28 29  1  0
 30 31  1  0
 31 32  1  1
 32 33  1  0
 33 34  1  0
M  CHG  3  16   1  29   1  34   1
M  END
