
     RDKit          3D

 34 34  0  0  0  0  0  0  0  0999 V2000
   -4.1000   -5.2210    1.2510 C   0  0  0  0  0  0  0  0  0  0  0  0
   -3.8170   -3.7930    1.3950 C   0  0  0  0  0  0  0  0  0  0  0  0
   -3.9530   -2.8490    0.4600 C   0  0  0  0  0  0  0  0  0  0  0  0
   -3.6180   -1.5360    0.8260 N   0  0  0  0  0  0  0  0  0  0  0  0
   -2.0740   -1.1320    0.1340 C   0  0  0  0  0  0  0  0  0  0  0  0
   -2.0270   -2.1700   -0.2520 O   0  0  0  0  0  0  0  0  0  0  0  0
   -2.0670    0.2150    0.5990 C   0  0  0  0  0  0  0  0  0  0  0  0
   -0.8390    0.9880    0.3940 C   0  0  0  0  0  0  0  0  0  0  0  0
    0.3860    0.7160    0.1570 C   0  0  0  0  0  0  0  0  0  0  0  0
    1.2900    1.8730    0.0170 N   0  0  0  0  0  0  0  0  0  0  0  0
    2.5390    1.8680   -0.1850 C   0  0  0  0  0  0  0  0  0  0  0  0
    3.2420    3.1650   -0.2880 C   0  0  0  0  0  0  0  0  0  0  0  0
    2.4430    4.3360   -0.1420 N   0  0  0  0  0  0  0  0  0  0  0  0
    4.4290    3.3190   -0.4850 O   0  0  0  0  0  0  0  0  0  0  0  0
    3.2270    0.5930   -0.3040 C   0  0  0  0  0  0  0  0  0  0  0  0
    4.4760    0.5250   -0.5080 N   0  0  0  0  0  0  0  0  0  0  0  0
    5.2080   -0.7450   -0.6390 C   0  0  1  0  0  0  0  0  0  0  0  0
    5.1580   -1.2890   -2.0350 C   0  0  0  0  0  0  0  0  0  0  0  0
    6.6400   -0.5090   -0.1660 C   0  0  2  0  0  0  0  0  0  0  0  0
    7.3160    0.5800   -0.9860 C   0  0  0  0  0  0  0  0  0  0  0  0
    7.3970   -1.7950   -0.2440 C   0  0  0  0  0  0  0  0  0  0  0  0
    2.4510   -0.5850   -0.1820 N   0  0  0  0  0  0  0  0  0  0  0  0
    1.0080   -0.5580    0.0530 C   0  0  0  0  0  0  0  0  0  0  0  0
    0.4670   -1.6640    0.1470 O   0  0  0  0  0  0  0  0  0  0  0  0
   -3.1040    1.0300    0.8710 C   0  0  0  0  0  0  0  0  0  0  0  0
   -2.7710    2.3460    1.3440 N   0  0  0  0  0  0  0  0  0  0  0  0
   -4.7660    0.6350    0.4800 S   0  0  0  0  0  0  0  0  0  0  0  0
   -5.8780    2.0160    0.5810 C   0  0  0  0  0  0  0  0  0  0  0  0
   -5.9610    2.5340    2.0160 C   0  0  0  0  0  0  0  0  0  0  0  0
   -6.9130    3.6310    1.9950 N   0  0  0  0  0  0  0  0  0  0  0  0
   -4.5160   -3.2210   -0.8560 C   0  0  1  0  0  0  0  0  0  0  0  0
   -5.8200   -2.6840   -0.9800 F   0  0  0  0  0  0  0  0  0  0  0  0
   -3.7310   -2.7250   -1.8630 F   0  0  0  0  0  0  0  0  0  0  0  0
   -4.6420   -4.5730   -1.0400 F   0  0  0  0  0  0  0  0  0  0  0  0
  1  2  1  0
  2  3  2  3
  3  4  1  0
  3 31  1  0
  4  5  1  0
  5  6  2  0
  5  7  1  0
  7  8  1  0
  7 25  2  3
  8  9  2  3
  9 10  1  0
  9 23  1  0
 10 11  2  0
 11 12  1  0
 11 15  1  0
 12 13  1  0
 12 14  2  0
 15 16  2  3
 15 22  1  0
 16 17  1  0
 17 18  1  6
 17 19  1  0
 19 20  1  6
 19 21  1  0
 22 23  1  0
 23 24  2  0
 25 26  1  0
 25 27  1  0
 27 28  1  0
 28 29  1  0
 29 30  1  0
 31 32  1  6
 31 33  1  0
 31 34  1  0
M  CHG  2  16   1  30   1
M  END
