
     RDKit          3D

 34 38  0  0  0  0  0  0  0  0999 V2000
   -1.9740    5.6110   -3.7620 C   0  0  0  0  0  0  0  0  0  0  0  0
   -1.7370    4.6290   -2.6680 C   0  0  0  0  0  0  0  0  0  0  0  0
   -0.5630    4.5910   -1.9560 C   0  0  0  0  0  0  0  0  0  0  0  0
   -0.7470    3.5360   -1.0320 C   0  0  0  0  0  0  0  0  0  0  0  0
   -1.9870    3.0110   -1.2330 C   0  0  0  0  0  0  0  0  0  0  0  0
   -2.6130    1.9100   -0.5150 C   0  0  0  0  0  0  0  0  0  0  0  0
   -3.9510    1.6220   -0.8430 C   0  0  0  0  0  0  0  0  0  0  0  0
   -4.5980    0.5920   -0.1990 C   0  0  0  0  0  0  0  0  0  0  0  0
   -4.0020   -0.1800    0.7590 C   0  0  0  0  0  0  0  0  0  0  0  0
   -4.4290   -1.2120    1.5020 N   0  0  0  0  0  0  0  0  0  0  0  0
   -3.4390   -1.5910    2.2770 C   0  0  0  0  0  0  0  0  0  0  0  0
   -3.5330   -2.9770    3.4870 S   0  0  0  0  0  0  0  0  0  0  0  0
   -2.9650   -3.9750    2.2630 C   0  0  0  0  0  0  0  0  0  0  0  0
   -5.0040   -3.6860    3.5260 C   0  0  0  0  0  0  0  0  0  0  0  0
   -2.2110   -3.2650    4.2660 O   0  0  0  0  0  0  0  0  0  0  0  0
   -2.3570   -0.8110    2.0490 C   0  0  0  0  0  0  0  0  0  0  0  0
   -2.6910    0.1070    1.0750 C   0  0  0  0  0  0  0  0  0  0  0  0
   -2.0300    1.1330    0.4390 C   0  0  0  0  0  0  0  0  0  0  0  0
   -0.6570    1.3340    0.8100 N   0  0  0  0  0  0  0  0  0  0  0  0
    0.3810    0.5830    0.1540 C   0  0  0  0  0  0  0  0  0  0  0  0
    0.0200   -0.2260   -0.7270 O   0  0  0  0  0  0  0  0  0  0  0  0
    1.7830    0.7640    0.5070 C   0  0  0  0  0  0  0  0  0  0  0  0
    2.7570   -0.0470   -0.2810 C   0  0  2  0  0  0  0  0  0  0  0  0
    4.1570    0.2850    0.2580 C   0  0  0  0  0  0  0  0  0  0  0  0
    4.7700   -0.9570    0.8930 C   0  0  0  0  0  0  0  0  0  0  0  0
    4.8420   -2.1160   -0.0460 C   0  0  0  0  0  0  0  0  0  0  0  0
    5.1910   -1.6740   -1.3690 N   0  0  0  0  0  0  0  0  0  0  0  0
    6.4850   -1.8220   -1.7250 C   0  0  0  0  0  0  0  0  0  0  0  0
    6.6020   -1.3560   -2.9800 N   0  0  0  0  0  0  0  0  0  0  0  0
    5.4350   -0.9260   -3.4150 N   0  0  0  0  0  0  0  0  0  0  0  0
    4.5540   -1.1200   -2.4170 C   0  0  0  0  0  0  0  0  0  0  0  0
    3.1360   -0.7080   -2.6590 C   0  0  0  0  0  0  0  0  0  0  0  0
    2.7130    0.3950   -1.7450 C   0  0  0  0  0  0  0  0  0  0  0  0
   -2.5170    3.7100   -2.2190 O   0  0  0  0  0  0  0  0  0  0  0  0
  1  2  1  0
  2  3  2  0
  2 34  1  0
  3  4  1  0
  4  5  2  0
  5  6  1  0
  5 34  1  0
  6  7  2  0
  6 18  1  0
  7  8  1  0
  8  9  2  0
  9 10  1  0
  9 17  1  0
 10 11  1  0
 11 12  1  0
 11 16  2  0
 12 13  1  0
 12 14  1  0
 12 15  2  0
 16 17  1  0
 17 18  2  0
 18 19  1  0
 19 20  1  0
 20 21  2  0
 20 22  1  0
 23 22  1  1
 23 24  1  0
 23 33  1  0
 24 25  1  0
 25 26  1  0
 26 27  1  0
 27 28  1  0
 27 31  1  0
 28 29  2  0
 29 30  1  0
 30 31  2  0
 31 32  1  0
 32 33  1  0
M  END
