
     RDKit          3D

 34 38  0  0  0  0  0  0  0  0999 V2000
   -6.0330    2.3870    0.6820 C   0  0  0  0  0  0  0  0  0  0  0  0
   -5.4520    2.1320   -0.6920 C   0  0  0  0  0  0  0  0  0  0  0  0
   -4.5930    0.9740   -0.7180 N   0  0  0  0  0  0  0  0  0  0  0  0
   -5.0940   -0.3230   -0.4170 C   0  0  0  0  0  0  0  0  0  0  0  0
   -6.4660   -0.4730   -0.1780 C   0  0  0  0  0  0  0  0  0  0  0  0
   -6.9830   -1.7180    0.0840 C   0  0  0  0  0  0  0  0  0  0  0  0
   -6.1540   -2.8100    0.1110 C   0  0  0  0  0  0  0  0  0  0  0  0
   -4.8090   -2.6510   -0.1240 C   0  0  0  0  0  0  0  0  0  0  0  0
   -4.2360   -1.4030   -0.3950 C   0  0  0  0  0  0  0  0  0  0  0  0
   -2.7930   -1.2920   -0.6110 C   0  0  0  0  0  0  0  0  0  0  0  0
   -2.1630   -2.0840   -1.5480 C   0  0  0  0  0  0  0  0  0  0  0  0
   -0.8030   -1.9990   -1.7430 C   0  0  0  0  0  0  0  0  0  0  0  0
   -0.0930   -1.1280   -1.0040 N   0  0  0  0  0  0  0  0  0  0  0  0
   -0.6400   -0.3300   -0.0780 C   0  0  0  0  0  0  0  0  0  0  0  0
    0.1320    0.6320    0.7410 C   0  0  0  0  0  0  0  0  0  0  0  0
    1.5100    0.5120    0.6130 O   0  0  0  0  0  0  0  0  0  0  0  0
    2.2770   -0.6020    0.9180 C   0  0  0  0  0  0  0  0  0  0  0  0
    1.6960   -1.7510    1.4090 C   0  0  0  0  0  0  0  0  0  0  0  0
    2.4340   -2.8870    1.7270 C   0  0  0  0  0  0  0  0  0  0  0  0
    3.7920   -2.8330    1.5340 C   0  0  0  0  0  0  0  0  0  0  0  0
    4.3760   -1.6880    1.0440 C   0  0  0  0  0  0  0  0  0  0  0  0
    3.6280   -0.5790    0.7380 C   0  0  0  0  0  0  0  0  0  0  0  0
    4.3040    0.6250    0.2140 C   0  0  0  0  0  0  0  0  0  0  0  0
    3.7210    1.7870   -0.1320 N   0  0  0  0  0  0  0  0  0  0  0  0
    4.6720    2.6090   -0.5520 N   0  0  0  0  0  0  0  0  0  0  0  0
    5.8500    1.9760   -0.4730 C   0  0  0  0  0  0  0  0  0  0  0  0
    7.2070    2.5240   -0.8450 C   0  0  0  0  0  0  0  0  0  0  0  0
    7.2780    3.8000   -1.3160 C   0  0  0  0  0  0  0  0  0  0  0  0
    9.0610    4.0280   -1.6270 S   0  0  0  0  0  0  0  0  0  0  0  0
    9.4630    2.3280   -1.0620 C   0  0  0  0  0  0  0  0  0  0  0  0
   10.6190    1.8810   -1.0480 O   0  0  0  0  0  0  0  0  0  0  0  0
    8.2960    1.8110   -0.7260 N   0  0  0  0  0  0  0  0  0  0  0  0
    5.5800    0.7850   -0.0070 O   0  0  0  0  0  0  0  0  0  0  0  0
   -2.0140   -0.4190    0.1170 C   0  0  0  0  0  0  0  0  0  0  0  0
  1  2  1  0
  2  3  1  0
  3  4  1  0
  4  5  2  0
  4  9  1  0
  5  6  1  0
  6  7  2  0
  7  8  1  0
  8  9  2  0
  9 10  1  0
 10 11  2  0
 10 34  1  0
 11 12  1  0
 12 13  2  0
 13 14  1  0
 14 15  1  0
 14 34  2  0
 15 16  1  0
 16 17  1  0
 17 18  2  0
 17 22  1  0
 18 19  1  0
 19 20  2  0
 20 21  1  0
 21 22  2  0
 22 23  1  0
 23 24  2  0
 23 33  1  0
 24 25  1  0
 25 26  2  0
 26 27  1  0
 26 33  1  0
 27 28  2  0
 27 32  1  0
 28 29  1  0
 29 30  1  0
 30 31  2  0
 30 32  1  0
M  END
