
     RDKit          3D

 33 36  0  0  0  0  0  0  0  0999 V2000
   -5.3520    2.8930   -1.9580 C   0  0  0  0  0  0  0  0  0  0  0  0
   -4.7300    1.7530   -1.1370 C   0  0  1  0  0  0  0  0  0  0  0  0
   -4.5080    2.2660    0.2830 C   0  0  0  0  0  0  0  0  0  0  0  0
   -5.7690    0.6790   -1.0270 C   0  0  0  0  0  0  0  0  0  0  0  0
   -3.4590    1.3930   -1.8090 C   0  0  0  0  0  0  0  0  0  0  0  0
   -2.6860    0.2920   -1.1780 C   0  0  0  0  0  0  0  0  0  0  0  0
   -1.6810    0.4300   -0.2310 C   0  0  0  0  0  0  0  0  0  0  0  0
   -1.2230   -0.7590    0.1840 N   0  0  0  0  0  0  0  0  0  0  0  0
   -0.2960   -1.0890    1.1990 C   0  0  0  0  0  0  0  0  0  0  0  0
    0.9660   -1.2930    1.0560 C   0  0  0  0  0  0  0  0  0  0  0  0
    1.7450   -1.2440   -0.0850 N   0  0  0  0  0  0  0  0  0  0  0  0
    1.5320   -0.9770   -1.4280 C   0  0  0  0  0  0  0  0  0  0  0  0
    0.4160   -0.6980   -1.8270 O   0  0  0  0  0  0  0  0  0  0  0  0
    2.6690   -1.0240   -2.4400 C   0  0  0  0  0  0  0  0  0  0  0  0
    4.2370   -1.4550   -1.6600 S   0  0  0  0  0  0  0  0  0  0  0  0
    4.7880   -0.1780   -0.5810 C   0  0  0  0  0  0  0  0  0  0  0  0
    4.1850    1.0310   -0.3270 C   0  0  0  0  0  0  0  0  0  0  0  0
    4.9400    1.6920    0.5600 N   0  0  0  0  0  0  0  0  0  0  0  0
    6.0160    0.9490    0.8890 C   0  0  0  0  0  0  0  0  0  0  0  0
    7.0510    1.2050    1.7450 N   0  0  0  0  0  0  0  0  0  0  0  0
    8.0150    0.2880    1.9030 C   0  0  0  0  0  0  0  0  0  0  0  0
    7.9270   -0.8870    1.1910 C   0  0  0  0  0  0  0  0  0  0  0  0
    6.9140   -1.1480    0.3470 N   0  0  0  0  0  0  0  0  0  0  0  0
    5.9440   -0.2280    0.1870 C   0  0  0  0  0  0  0  0  0  0  0  0
    1.7450   -1.6950    2.2870 C   0  0  0  0  0  0  0  0  0  0  0  0
    1.2130   -1.8410    3.4360 C   0  0  0  0  0  0  0  0  0  0  0  0
   -0.2070   -1.6490    3.7320 C   0  0  0  0  0  0  0  0  0  0  0  0
   -0.9190   -1.1490    2.5780 C   0  0  0  0  0  0  0  0  0  0  0  0
   -2.1210   -0.7290    2.6600 O   0  0  0  0  0  0  0  0  0  0  0  0
   -1.9430   -1.6880   -0.5070 C   0  0  0  0  0  0  0  0  0  0  0  0
   -2.8430   -1.0590   -1.3460 C   0  0  0  0  0  0  0  0  0  0  0  0
   -3.7240   -1.7690   -2.2610 C   0  0  0  0  0  0  0  0  0  0  0  0
   -4.4260   -1.2420   -3.1490 O   0  0  0  0  0  0  0  0  0  0  0  0
  2  1  1  6
  2  3  1  0
  2  4  1  0
  2  5  1  0
  5  6  1  0
  6  7  2  0
  6 31  1  0
  7  8  1  0
  8  9  1  0
  8 30  1  0
  9 10  2  0
  9 28  1  0
 10 11  1  0
 10 25  1  0
 11 12  1  0
 12 13  2  0
 12 14  1  0
 14 15  1  0
 15 16  1  0
 16 17  2  0
 16 24  1  0
 17 18  1  0
 18 19  1  0
 19 20  2  0
 19 24  1  0
 20 21  1  0
 21 22  2  0
 22 23  1  0
 23 24  2  0
 25 26  2  0
 26 27  1  0
 27 28  1  0
 28 29  2  0
 30 31  2  0
 31 32  1  0
 32 33  2  0
M  END
