
     RDKit          3D

 33 37  0  0  0  0  0  0  0  0999 V2000
   -8.1990    0.9780    0.9300 C   0  0  0  0  0  0  0  0  0  0  0  0
   -7.3760    0.4790   -0.2410 C   0  0  2  0  0  0  0  0  0  0  0  0
   -7.4590    1.4840   -1.3350 C   0  0  0  0  0  0  0  0  0  0  0  0
   -7.9750   -0.8130   -0.7460 C   0  0  0  0  0  0  0  0  0  0  0  0
   -5.9650    0.2520    0.1920 C   0  0  0  0  0  0  0  0  0  0  0  0
   -5.2180   -0.8430   -0.0300 N   0  0  0  0  0  0  0  0  0  0  0  0
   -3.9950   -0.6770    0.5260 C   0  0  0  0  0  0  0  0  0  0  0  0
   -2.9150   -1.6630    0.5260 C   0  0  0  0  0  0  0  0  0  0  0  0
   -1.6640   -1.3100    0.0150 N   0  0  0  0  0  0  0  0  0  0  0  0
   -1.5460   -0.9780   -1.3640 C   0  0  0  0  0  0  0  0  0  0  0  0
   -0.2760   -0.2200   -1.6700 C   0  0  0  0  0  0  0  0  0  0  0  0
    0.7710   -0.3090   -0.6160 C   0  0  0  0  0  0  0  0  0  0  0  0
    2.0890   -0.3820   -0.8680 N   0  0  0  0  0  0  0  0  0  0  0  0
    2.9440   -0.4600    0.1710 C   0  0  0  0  0  0  0  0  0  0  0  0
    4.1520   -0.5390   -0.1960 O   0  0  0  0  0  0  0  0  0  0  0  0
    2.6210   -0.4690    1.4670 C   0  0  0  0  0  0  0  0  0  0  0  0
    3.4550   -0.3700    2.6420 C   0  0  0  0  0  0  0  0  0  0  0  0
    4.6600   -0.0740    2.7590 N   0  0  0  0  0  0  0  0  0  0  0  0
    5.6400    0.2730    1.7970 C   0  0  0  0  0  0  0  0  0  0  0  0
    6.5660   -0.0300    1.1660 N   0  0  0  0  0  0  0  0  0  0  0  0
    7.2350    0.6050    0.2590 C   0  0  0  0  0  0  0  0  0  0  0  0
    8.4180    0.0330   -0.4880 C   0  0  1  0  0  0  0  0  0  0  0  0
    9.1510   -1.1310    0.0690 C   0  0  0  0  0  0  0  0  0  0  0  0
    8.2200   -1.3550   -1.0620 C   0  0  0  0  0  0  0  0  0  0  0  0
    6.7780    1.8780   -0.0190 C   0  0  0  0  0  0  0  0  0  0  0  0
    7.2370    2.8860   -0.9610 C   0  0  0  0  0  0  0  0  0  0  0  0
    6.6200    3.9770   -0.9870 O   0  0  0  0  0  0  0  0  0  0  0  0
    5.4080    2.0520    1.0630 S   0  0  0  0  0  0  0  0  0  0  0  0
    1.2120   -0.3990    1.7140 C   0  0  0  0  0  0  0  0  0  0  0  0
    0.3310   -0.3180    0.6930 C   0  0  0  0  0  0  0  0  0  0  0  0
   -1.1390   -0.1990    0.8620 C   0  0  0  0  0  0  0  0  0  0  0  0
   -4.0050    0.5480    1.0930 C   0  0  0  0  0  0  0  0  0  0  0  0
   -5.2100    1.0680    0.8630 O   0  0  0  0  0  0  0  0  0  0  0  0
  2  1  1  1
  2  3  1  0
  2  4  1  0
  2  5  1  0
  5  6  2  0
  5 33  1  0
  6  7  1  0
  7  8  1  0
  7 32  2  0
  8  9  1  0
  9 10  1  0
  9 31  1  0
 10 11  1  0
 11 12  1  0
 12 13  1  0
 12 30  2  0
 13 14  1  0
 14 15  2  0
 14 16  1  0
 16 17  1  0
 16 29  2  0
 17 18  2  3
 18 19  1  0
 19 20  2  0
 19 28  1  0
 20 21  1  0
 22 21  1  1
 21 25  2  0
 22 23  1  0
 22 24  1  0
 23 24  1  0
 25 26  1  0
 25 28  1  0
 26 27  2  0
 29 30  1  0
 30 31  1  0
 32 33  1  0
M  END
