
     RDKit          3D

 34 38  0  0  0  0  0  0  0  0999 V2000
   -7.6830   -1.6490    3.2640 C   0  0  0  0  0  0  0  0  0  0  0  0
   -6.9070   -1.0400    2.2140 N   0  0  0  0  0  0  0  0  0  0  0  0
   -5.5530   -1.0530    2.1290 C   0  0  0  0  0  0  0  0  0  0  0  0
   -5.1690   -0.3810    0.9960 C   0  0  0  0  0  0  0  0  0  0  0  0
   -3.7750   -0.1540    0.5120 C   0  0  0  0  0  0  0  0  0  0  0  0
   -3.8440    0.5700   -0.6810 O   0  0  0  0  0  0  0  0  0  0  0  0
   -2.7350    0.9620   -1.4170 C   0  0  0  0  0  0  0  0  0  0  0  0
   -2.9620    1.6700   -2.5720 C   0  0  0  0  0  0  0  0  0  0  0  0
   -1.8990    2.0780   -3.3300 C   0  0  0  0  0  0  0  0  0  0  0  0
   -0.5750    1.7800   -2.9390 C   0  0  0  0  0  0  0  0  0  0  0  0
   -0.3220    1.0780   -1.7950 C   0  0  0  0  0  0  0  0  0  0  0  0
    0.9560    0.7230   -1.3410 N   0  0  0  0  0  0  0  0  0  0  0  0
    2.1820    0.8080   -2.0280 C   0  0  0  0  0  0  0  0  0  0  0  0
    2.1790    1.2480   -3.2030 O   0  0  0  0  0  0  0  0  0  0  0  0
    3.4550    0.3920   -1.3930 C   0  0  0  0  0  0  0  0  0  0  0  0
    3.3910   -0.0370   -0.2230 O   0  0  0  0  0  0  0  0  0  0  0  0
    4.6930    0.4610   -2.0460 N   0  0  0  0  0  0  0  0  0  0  0  0
    5.8990    0.0460   -1.3880 C   0  0  0  0  0  0  0  0  0  0  0  0
    7.1130    0.1110   -2.0210 C   0  0  0  0  0  0  0  0  0  0  0  0
    8.2720   -0.3020   -1.3510 C   0  0  0  0  0  0  0  0  0  0  0  0
    8.1870   -0.7700   -0.0640 C   0  0  0  0  0  0  0  0  0  0  0  0
    9.3910   -1.2040    0.6460 C   0  0  0  0  0  0  0  0  0  0  0  0
   10.6780   -1.2360    0.2460 C   0  0  0  0  0  0  0  0  0  0  0  0
   11.6150   -1.6780    1.0780 C   0  0  0  0  0  0  0  0  0  0  0  0
   11.2270   -2.0890    2.3290 C   0  0  0  0  0  0  0  0  0  0  0  0
    9.4610   -1.8270    2.2920 S   0  0  0  0  0  0  0  0  0  0  0  0
    6.9490   -0.8180    0.5330 C   0  0  0  0  0  0  0  0  0  0  0  0
    5.8290   -0.4130   -0.1310 N   0  0  0  0  0  0  0  0  0  0  0  0
   -1.4560    0.6910   -1.0660 C   0  0  0  0  0  0  0  0  0  0  0  0
   -6.2780    0.0290    0.4110 N   0  0  0  0  0  0  0  0  0  0  0  0
   -7.3670   -0.3660    1.1470 C   0  0  0  0  0  0  0  0  0  0  0  0
   -8.7570   -0.0700    0.7820 C   0  0  1  0  0  0  0  0  0  0  0  0
   -9.9350   -0.7440    1.2990 C   0  0  0  0  0  0  0  0  0  0  0  0
   -9.6790    0.6430    1.7400 C   0  0  0  0  0  0  0  0  0  0  0  0
  1  2  1  0
  2  3  1  0
  2 31  1  0
  3  4  2  0
  4  5  1  0
  4 30  1  0
  5  6  1  0
  6  7  1  0
  7  8  2  0
  7 29  1  0
  8  9  1  0
  9 10  2  0
 10 11  1  0
 11 12  1  0
 11 29  2  0
 12 13  1  0
 13 14  2  0
 13 15  1  0
 15 16  2  0
 15 17  1  0
 17 18  1  0
 18 19  2  0
 18 28  1  0
 19 20  1  0
 20 21  2  0
 21 22  1  0
 21 27  1  0
 22 23  2  0
 22 26  1  0
 23 24  1  0
 24 25  2  0
 25 26  1  0
 27 28  2  0
 30 31  2  0
 32 31  1  1
 32 33  1  0
 32 34  1  0
 33 34  1  0
M  END
