
     RDKit          3D

 35 37  0  0  0  0  0  0  0  0999 V2000
    4.6750   -2.8950    0.4030 C   0  0  0  0  0  0  0  0  0  0  0  0
    3.7940   -1.6890    0.4030 C   0  0  0  0  0  0  0  0  0  0  0  0
    2.4350   -1.8080    0.5340 C   0  0  0  0  0  0  0  0  0  0  0  0
    1.6180   -0.6870    0.5790 C   0  0  0  0  0  0  0  0  0  0  0  0
    0.2640   -0.5400    0.6960 C   0  0  0  0  0  0  0  0  0  0  0  0
   -0.6900   -1.6350    0.8720 C   0  0  0  0  0  0  0  0  0  0  0  0
   -0.0370    0.8190    0.6790 C   0  0  0  0  0  0  0  0  0  0  0  0
   -1.4520    1.2600    0.7770 C   0  0  0  0  0  0  0  0  0  0  0  0
   -1.7920    2.1710    1.5330 O   0  0  0  0  0  0  0  0  0  0  0  0
   -2.4250    0.6030   -0.0190 N   0  0  0  0  0  0  0  0  0  0  0  0
   -3.8240    0.6780    0.0420 C   0  0  0  0  0  0  0  0  0  0  0  0
   -4.6210   -0.0500   -0.8500 C   0  0  0  0  0  0  0  0  0  0  0  0
   -5.9820   -0.1670   -0.7630 C   0  0  0  0  0  0  0  0  0  0  0  0
   -6.6980   -1.0700   -1.6440 C   0  0  0  0  0  0  0  0  0  0  0  0
   -7.8080   -0.5680   -2.4140 N   0  0  0  0  0  0  0  0  0  0  0  0
   -6.5780    0.4950    0.3030 C   0  0  0  0  0  0  0  0  0  0  0  0
   -7.9740    0.3340    0.5240 C   0  0  0  0  0  0  0  0  0  0  0  0
   -8.8890    1.1610    0.1170 C   0  0  0  0  0  0  0  0  0  0  0  0
  -10.2360    0.8750    0.3990 O   0  0  0  0  0  0  0  0  0  0  0  0
   -8.6660    2.3940   -0.6260 C   0  0  0  0  0  0  0  0  0  0  0  0
   -7.4660    2.6800   -0.9030 O   0  0  0  0  0  0  0  0  0  0  0  0
   -5.8160    1.2090    1.1750 C   0  0  0  0  0  0  0  0  0  0  0  0
   -6.4090    1.7930    2.1220 O   0  0  0  0  0  0  0  0  0  0  0  0
   -4.4890    1.2850    1.0270 N   0  0  0  0  0  0  0  0  0  0  0  0
    1.0950    1.4230    0.5560 O   0  0  0  0  0  0  0  0  0  0  0  0
    2.1100    0.5880    0.4900 C   0  0  0  0  0  0  0  0  0  0  0  0
    3.5040    0.6920    0.3530 C   0  0  0  0  0  0  0  0  0  0  0  0
    4.3400   -0.3980    0.3060 C   0  0  0  0  0  0  0  0  0  0  0  0
    5.7260   -0.3450    0.1170 N   0  0  0  0  0  0  0  0  0  0  0  0
    6.5550    0.7910    0.0960 C   0  0  0  0  0  0  0  0  0  0  0  0
    6.0320    1.9240    0.2420 O   0  0  0  0  0  0  0  0  0  0  0  0
    8.0330    0.6490   -0.0910 C   0  0  2  0  0  0  0  0  0  0  0  0
    8.7170    1.2320    1.1370 C   0  0  0  0  0  0  0  0  0  0  0  0
    8.4400    1.4110   -1.3150 C   0  0  0  0  0  0  0  0  0  0  0  0
    8.3550   -0.8260   -0.2330 C   0  0  0  0  0  0  0  0  0  0  0  0
  1  2  1  0
  2  3  2  0
  2 28  1  0
  3  4  1  0
  4  5  1  0
  4 26  2  0
  5  6  1  0
  5  7  2  0
  7  8  1  0
  7 25  1  0
  8  9  2  0
  8 10  1  0
 10 11  1  0
 11 12  2  0
 11 24  1  0
 12 13  1  0
 13 14  1  0
 13 16  2  0
 14 15  1  0
 16 17  1  0
 16 22  1  0
 17 18  2  3
 18 19  1  0
 18 20  1  0
 20 21  2  0
 22 23  2  0
 22 24  1  0
 25 26  1  0
 26 27  1  0
 27 28  2  0
 28 29  1  0
 29 30  1  0
 30 31  2  0
 30 32  1  0
 32 33  1  1
 32 34  1  0
 32 35  1  0
M  CHG  1  15   1
M  END
