
     RDKit          3D

 37 39  0  0  0  0  0  0  0  0999 V2000
    3.8060   -0.3400    2.9410 C   0  0  0  0  0  0  0  0  0  0  0  0
    3.9980   -0.7610    1.5030 C   0  0  0  0  0  0  0  0  0  0  0  0
    2.8030   -1.0970    0.9000 O   0  0  0  0  0  0  0  0  0  0  0  0
    2.9760   -1.5910   -0.7340 P   0  0  0  0  0  0  0  0  0  0  0  0
    4.6630   -1.8500   -1.1100 O   0  0  0  0  0  0  0  0  0  0  0  0
    4.8880   -3.2040   -1.2340 C   0  0  0  0  0  0  0  0  0  0  0  0
    6.3670   -3.3700   -1.5530 C   0  0  0  0  0  0  0  0  0  0  0  0
    2.2680   -0.2230   -1.8150 C   0  0  2  0  0  0  0  0  0  0  0  0
    3.4080    0.3130   -2.4750 O   0  0  0  0  0  0  0  0  0  0  0  0
    1.7440    0.9150   -0.9780 C   0  0  0  0  0  0  0  0  0  0  0  0
    0.5250    0.5940   -0.2380 N   0  0  0  0  0  0  0  0  0  0  0  0
   -0.5810    0.4180   -1.0890 C   0  0  0  0  0  0  0  0  0  0  0  0
   -1.9690    0.3760   -0.2760 C   0  0  1  0  0  0  0  0  0  0  0  0
   -2.0360    1.6370    0.4050 C   0  0  0  0  0  0  0  0  0  0  0  0
   -2.5620    1.5940    1.7190 C   0  0  0  0  0  0  0  0  0  0  0  0
   -2.8070    2.7410    2.4310 C   0  0  0  0  0  0  0  0  0  0  0  0
   -2.5490    3.9930    1.8890 C   0  0  0  0  0  0  0  0  0  0  0  0
   -2.0370    4.0460    0.6140 C   0  0  0  0  0  0  0  0  0  0  0  0
   -1.7870    2.8540   -0.1050 C   0  0  0  0  0  0  0  0  0  0  0  0
   -1.2540    3.0970   -1.3580 O   0  0  0  0  0  0  0  0  0  0  0  0
   -0.9790    4.3290   -1.9260 C   0  0  0  0  0  0  0  0  0  0  0  0
   -2.8480   -0.0130   -1.3600 C   0  0  0  0  0  0  0  0  0  0  0  0
   -3.4750    0.4600   -2.4050 C   0  0  0  0  0  0  0  0  0  0  0  0
   -3.6040    1.7230   -3.0340 C   0  0  0  0  0  0  0  0  0  0  0  0
   -4.3400    1.8980   -4.1410 C   0  0  0  0  0  0  0  0  0  0  0  0
   -4.4340    3.1300   -4.7080 O   0  0  0  0  0  0  0  0  0  0  0  0
   -4.9810    0.8090   -4.6680 O   0  0  0  0  0  0  0  0  0  0  0  0
   -3.0400   -1.4450   -1.0730 O   0  0  0  0  0  0  0  0  0  0  0  0
   -2.4070   -1.7620    0.0500 N   0  0  0  0  0  0  0  0  0  0  0  0
   -1.7900   -0.7880    0.5780 C   0  0  0  0  0  0  0  0  0  0  0  0
   -1.0650   -0.8130    1.8380 N   0  0  0  0  0  0  0  0  0  0  0  0
   -1.1170   -2.0250    2.5700 C   0  0  0  0  0  0  0  0  0  0  0  0
   -2.2480   -2.3680    3.1760 C   0  0  0  0  0  0  0  0  0  0  0  0
   -2.4010   -3.6140    3.9630 C   0  0  0  0  0  0  0  0  0  0  0  0
   -1.2250   -4.3740    3.9990 O   0  0  0  0  0  0  0  0  0  0  0  0
   -0.0490   -4.0300    3.3760 C   0  0  0  0  0  0  0  0  0  0  0  0
    0.0270   -2.9100    2.6870 C   0  0  0  0  0  0  0  0  0  0  0  0
  1  2  1  0
  2  3  1  0
  3  4  1  0
  4  5  1  0
  4  8  1  0
  5  6  1  0
  6  7  1  0
  8  9  1  6
  8 10  1  0
 10 11  1  0
 11 12  1  0
 13 12  1  6
 13 14  1  0
 13 22  1  0
 13 30  1  0
 14 15  2  0
 14 19  1  0
 15 16  1  0
 16 17  2  0
 17 18  1  0
 18 19  2  0
 19 20  1  0
 20 21  1  0
 22 23  2  3
 22 28  1  0
 23 24  1  0
 24 25  2  3
 25 26  1  0
 25 27  1  0
 28 29  1  0
 29 30  2  0
 30 31  1  0
 31 32  1  0
 32 33  2  0
 32 37  1  0
 33 34  1  0
 34 35  1  0
 35 36  1  0
 36 37  2  0
M  END
