
     RDKit          3D

 33 34  0  0  0  0  0  0  0  0999 V2000
   -2.1020    0.2830   -1.6100 C   0  0  0  0  0  0  0  0  0  0  0  0
   -2.3470   -0.0240   -0.1360 C   0  0  2  0  0  0  0  0  0  0  0  0
   -3.2430    1.0200    0.3470 N   0  0  0  0  0  0  0  0  0  0  0  0
   -4.5450    0.7680    0.8410 C   0  0  0  0  0  0  0  0  0  0  0  0
   -4.9530   -0.4310    0.8570 O   0  0  0  0  0  0  0  0  0  0  0  0
   -5.3560    1.7700    1.2940 O   0  0  0  0  0  0  0  0  0  0  0  0
   -6.6610    1.5830    1.7920 C   0  0  0  0  0  0  0  0  0  0  0  0
   -7.5440    0.9920    0.7600 C   0  0  0  0  0  0  0  0  0  0  0  0
   -8.0530    1.8180   -0.2410 C   0  0  0  0  0  0  0  0  0  0  0  0
   -8.8740    1.3190   -1.2100 C   0  0  0  0  0  0  0  0  0  0  0  0
   -9.2370   -0.0130   -1.2430 C   0  0  0  0  0  0  0  0  0  0  0  0
   -8.7390   -0.8250   -0.2600 C   0  0  0  0  0  0  0  0  0  0  0  0
   -7.9090   -0.3200    0.7180 C   0  0  0  0  0  0  0  0  0  0  0  0
   -1.0490    0.1530    0.5640 C   0  0  0  0  0  0  0  0  0  0  0  0
   -0.8810    1.1020    1.4010 O   0  0  0  0  0  0  0  0  0  0  0  0
    0.0660   -0.6900    0.3630 N   0  0  0  0  0  0  0  0  0  0  0  0
    1.3390   -0.5090    1.0520 C   0  0  1  0  0  0  0  0  0  0  0  0
    1.3720   -1.6080    2.1110 C   0  0  0  0  0  0  0  0  0  0  0  0
    2.7730   -0.3240    0.1020 P   0  0  0  0  0  0  0  0  0  0  0  0
    2.1420   -0.5650   -1.2730 O   0  0  0  0  0  0  0  0  0  0  0  0
    3.1320    1.2600   -0.4670 O   0  0  0  0  0  0  0  0  0  0  0  0
    3.8250   -1.5250   -0.0920 O   0  0  0  0  0  0  0  0  0  0  0  0
    4.7500   -1.5500   -1.0270 C   0  0  1  0  0  0  0  0  0  0  0  0
    6.1930   -1.4770   -0.6440 C   0  0  0  0  0  0  0  0  0  0  0  0
    6.4660   -0.1920    0.1000 C   0  0  0  0  0  0  0  0  0  0  0  0
    6.3820   -0.0980    1.4670 C   0  0  0  0  0  0  0  0  0  0  0  0
    6.6190    1.0760    2.1250 C   0  0  0  0  0  0  0  0  0  0  0  0
    6.9560    2.2220    1.4370 C   0  0  0  0  0  0  0  0  0  0  0  0
    7.0440    2.1380    0.0520 C   0  0  0  0  0  0  0  0  0  0  0  0
    6.8020    0.9500   -0.5940 C   0  0  0  0  0  0  0  0  0  0  0  0
    4.5400   -2.7060   -1.9370 C   0  0  0  0  0  0  0  0  0  0  0  0
    3.5860   -3.5050   -1.7740 O   0  0  0  0  0  0  0  0  0  0  0  0
    5.4240   -2.9250   -3.0110 O   0  0  0  0  0  0  0  0  0  0  0  0
  2  1  1  6
  2  3  1  0
  2 14  1  0
  3  4  1  0
  4  5  2  0
  4  6  1  0
  6  7  1  0
  7  8  1  0
  8  9  2  0
  8 13  1  0
  9 10  1  0
 10 11  2  0
 11 12  1  0
 12 13  2  0
 14 15  2  0
 14 16  1  0
 16 17  1  0
 17 18  1  1
 17 19  1  0
 19 20  1  0
 19 21  1  0
 19 22  1  0
 22 23  1  0
 23 24  1  1
 23 31  1  0
 24 25  1  0
 25 26  2  0
 25 30  1  0
 26 27  1  0
 27 28  2  0
 28 29  1  0
 29 30  2  0
 31 32  2  0
 31 33  1  0
M  END
