
     RDKit          3D

 37 38  0  0  0  0  0  0  0  0999 V2000
    3.8670   -1.5190   -0.0080 C   0  0  0  0  0  0  0  0  0  0  0  0
    2.3930   -1.3600    0.2890 C   0  0  0  0  0  0  0  0  0  0  0  0
    1.8960   -0.2780   -0.4750 O   0  0  0  0  0  0  0  0  0  0  0  0
    0.5380    0.1050   -0.3630 C   0  0  0  0  0  0  0  0  0  0  0  0
   -0.1350   -0.5510    0.4170 O   0  0  0  0  0  0  0  0  0  0  0  0
    0.1530    1.2440   -1.2090 C   0  0  1  0  0  0  0  0  0  0  0  0
    1.0000    2.4130   -0.6560 C   0  0  0  0  0  0  0  0  0  0  0  0
    2.4220    2.2330   -0.6790 C   0  0  0  0  0  0  0  0  0  0  0  0
    3.1120    1.9490   -1.6590 O   0  0  0  0  0  0  0  0  0  0  0  0
    3.1560    2.4010    0.6090 C   0  0  0  0  0  0  0  0  0  0  0  0
    2.5080    2.6540    1.6570 O   0  0  0  0  0  0  0  0  0  0  0  0
    4.5600    2.2860    0.6970 N   0  0  0  0  0  0  0  0  0  0  0  0
    5.3510    2.4090    1.8620 C   0  0  0  0  0  0  0  0  0  0  0  0
    6.7290    2.6030    1.7130 C   0  0  0  0  0  0  0  0  0  0  0  0
    7.5280    2.7020    2.8080 C   0  0  0  0  0  0  0  0  0  0  0  0
    7.0260    2.6180    4.0400 N   0  0  0  0  0  0  0  0  0  0  0  0
    5.6970    2.4310    4.2560 C   0  0  0  0  0  0  0  0  0  0  0  0
    4.8700    2.3280    3.1340 C   0  0  0  0  0  0  0  0  0  0  0  0
    0.4840    1.0980   -2.6660 C   0  0  0  0  0  0  0  0  0  0  0  0
    0.7090   -0.3160   -3.1170 C   0  0  0  0  0  0  0  0  0  0  0  0
   -0.1750   -0.7250   -4.1100 O   0  0  0  0  0  0  0  0  0  0  0  0
   -0.7320   -1.9580   -3.8680 C   0  0  0  0  0  0  0  0  0  0  0  0
   -1.6600   -1.8880   -2.7030 C   0  0  0  0  0  0  0  0  0  0  0  0
   -2.6850   -0.8120   -2.9360 C   0  0  0  0  0  0  0  0  0  0  0  0
   -3.8330   -0.8770   -2.0110 C   0  0  0  0  0  0  0  0  0  0  0  0
   -5.0430   -1.5690   -2.6630 C   0  0  0  0  0  0  0  0  0  0  0  0
   -3.9890   -0.4570   -0.8010 C   0  0  0  0  0  0  0  0  0  0  0  0
   -3.1100    0.2430    0.1300 C   0  0  0  0  0  0  0  0  0  0  0  0
   -3.1450   -0.1470    1.3920 C   0  0  0  0  0  0  0  0  0  0  0  0
   -4.0090   -1.2150    1.8410 C   0  0  0  0  0  0  0  0  0  0  0  0
   -4.0060   -1.5660    3.1250 C   0  0  0  0  0  0  0  0  0  0  0  0
   -4.8760   -2.6500    3.6370 C   0  0  0  0  0  0  0  0  0  0  0  0
   -5.7160   -2.0660    4.6220 O   0  0  0  0  0  0  0  0  0  0  0  0
   -6.5170   -2.9520    5.1300 O   0  0  0  0  0  0  0  0  0  0  0  0
   -2.2260    1.3900   -0.1390 C   0  0  0  0  0  0  0  0  0  0  0  0
   -2.4230    2.4040    0.7200 O   0  0  0  0  0  0  0  0  0  0  0  0
   -1.2500    1.6430   -1.0760 N   0  0  0  0  0  0  0  0  0  0  0  0
  1  2  1  0
  2  3  1  0
  3  4  1  0
  4  5  2  0
  4  6  1  0
  6  7  1  1
  6 19  1  0
  6 37  1  0
  7  8  1  0
  8  9  2  0
  8 10  1  0
 10 11  2  0
 10 12  1  0
 12 13  1  0
 13 14  2  0
 13 18  1  0
 14 15  1  0
 15 16  2  0
 16 17  1  0
 17 18  2  0
 19 20  1  0
 20 21  1  0
 21 22  1  0
 22 23  1  0
 23 24  1  0
 24 25  1  0
 25 26  1  0
 25 27  2  0
 27 28  1  0
 28 29  2  3
 28 35  1  0
 29 30  1  0
 30 31  2  3
 31 32  1  0
 32 33  1  0
 33 34  1  0
 35 36  2  0
 35 37  1  0
M  END
