
     RDKit          3D

 37 39  0  0  0  0  0  0  0  0999 V2000
   -8.9610   -2.3380    0.2310 C   0  0  0  0  0  0  0  0  0  0  0  0
   -7.5710   -2.6780   -0.3290 C   0  0  0  0  0  0  0  0  0  0  0  0
   -7.3680   -1.8420   -1.3920 O   0  0  0  0  0  0  0  0  0  0  0  0
   -6.1980   -1.8980   -2.0470 C   0  0  0  0  0  0  0  0  0  0  0  0
   -4.9700   -1.3570   -1.5310 C   0  0  0  0  0  0  0  0  0  0  0  0
   -4.6130   -0.7100   -0.4560 C   0  0  0  0  0  0  0  0  0  0  0  0
   -3.1780   -0.3120   -0.2760 C   0  0  0  0  0  0  0  0  0  0  0  0
   -2.8480    0.8720    0.2230 C   0  0  0  0  0  0  0  0  0  0  0  0
   -1.4980    1.3420    0.4340 C   0  0  0  0  0  0  0  0  0  0  0  0
   -1.1630    2.5220    0.9310 C   0  0  0  0  0  0  0  0  0  0  0  0
    0.2300    2.6310    0.9900 O   0  0  0  0  0  0  0  0  0  0  0  0
    0.6670    1.6930   -0.0460 C   0  0  2  0  0  0  0  0  0  0  0  0
    2.0510    1.3550    0.3200 C   0  0  0  0  0  0  0  0  0  0  0  0
    2.7780    0.4370   -0.4600 N   0  0  0  0  0  0  0  0  0  0  0  0
    4.1290    0.1370   -0.1500 C   0  0  0  0  0  0  0  0  0  0  0  0
    4.7330    0.7550    0.9280 C   0  0  0  0  0  0  0  0  0  0  0  0
    6.0330    0.5170    1.2900 C   0  0  0  0  0  0  0  0  0  0  0  0
    6.8030   -0.3770    0.5660 C   0  0  0  0  0  0  0  0  0  0  0  0
    8.1360   -0.6520    0.9310 N   0  0  0  0  0  0  0  0  0  0  0  0
    9.0120   -1.3500    0.0530 C   0  0  1  0  0  0  0  0  0  0  0  0
    9.3300   -0.4990   -1.1530 C   0  0  0  0  0  0  0  0  0  0  0  0
    9.9510    0.6760   -0.7180 O   0  0  0  0  0  0  0  0  0  0  0  0
   10.5890   -1.8000    0.9570 P   0  0  0  0  0  0  0  0  0  0  0  0
   11.6860   -2.4650   -0.1960 O   0  0  0  0  0  0  0  0  0  0  0  0
    6.2210   -1.0020   -0.5090 C   0  0  0  0  0  0  0  0  0  0  0  0
    4.8930   -0.7440   -0.8610 C   0  0  0  0  0  0  0  0  0  0  0  0
    0.4200    2.3460   -1.2010 O   0  0  0  0  0  0  0  0  0  0  0  0
    0.6860    1.8000   -2.4000 C   0  0  0  0  0  0  0  0  0  0  0  0
   -0.0300    0.5160   -2.7330 C   0  0  0  0  0  0  0  0  0  0  0  0
   -0.2870    0.6980    0.1770 O   0  0  0  0  0  0  0  0  0  0  0  0
   -3.9950    1.7520    0.5720 C   0  0  0  0  0  0  0  0  0  0  0  0
   -5.0850    1.0230    1.1230 N   0  0  0  0  0  0  0  0  0  0  0  0
   -5.8210    1.6020    2.2090 C   0  0  0  0  0  0  0  0  0  0  0  0
   -5.5220    2.7330    2.6810 O   0  0  0  0  0  0  0  0  0  0  0  0
   -6.8960    0.9490    2.7970 O   0  0  0  0  0  0  0  0  0  0  0  0
   -7.6440    1.4890    3.8710 C   0  0  0  0  0  0  0  0  0  0  0  0
   -5.4840   -0.2550    0.6470 C   0  0  0  0  0  0  0  0  0  0  0  0
  1  2  1  0
  2  3  1  0
  3  4  1  0
  4  5  1  0
  5  6  2  3
  6  7  1  0
  6 37  1  0
  7  8  2  0
  8  9  1  0
  8 31  1  0
  9 10  2  0
  9 30  1  0
 10 11  1  0
 11 12  1  0
 12 13  1  1
 12 27  1  0
 12 30  1  0
 13 14  1  0
 14 15  1  0
 15 16  2  0
 15 26  1  0
 16 17  1  0
 17 18  2  0
 18 19  1  0
 18 25  1  0
 19 20  1  0
 20 21  1  6
 20 23  1  0
 21 22  1  0
 23 24  1  0
 25 26  2  0
 27 28  1  0
 28 29  1  0
 31 32  1  0
 32 33  1  0
 32 37  1  0
 33 34  2  0
 33 35  1  0
 35 36  1  0
M  END
