
     RDKit          3D

 42 45  0  0  0  0  0  0  0  0999 V2000
   -3.0780    1.9500   -1.9860 C   0  0  0  0  0  0  0  0  0  0  0  0
   -2.8180    0.7290   -1.1920 C   0  0  0  0  0  0  0  0  0  0  0  0
   -1.6390    0.4070   -0.7390 C   0  0  0  0  0  0  0  0  0  0  0  0
   -1.2240   -1.0610    0.2420 S   0  0  0  0  0  0  0  0  0  0  0  0
    0.5360   -0.9550   -0.0410 C   0  0  0  0  0  0  0  0  0  0  0  0
    1.3370   -1.8910    0.1460 O   0  0  0  0  0  0  0  0  0  0  0  0
    0.7630    0.3560   -0.4920 N   0  0  0  0  0  0  0  0  0  0  0  0
    2.0740    0.8790   -0.5570 N   0  0  0  0  0  0  0  0  0  0  0  0
    2.7020    1.5170    0.5870 C   0  0  0  0  0  0  0  0  0  0  0  0
    4.1850    1.4020    0.2430 C   0  0  2  0  0  0  0  0  0  0  0  0
    4.6840   -0.1950    0.8670 Cl  0  0  0  0  0  0  0  0  0  0  0  0
    4.9020    2.5400    0.8800 C   0  0  0  0  0  0  0  0  0  0  0  0
    6.3650    2.5560    0.6100 C   0  0  0  0  0  0  0  0  0  0  0  0
    7.1120    1.3640    1.0720 C   0  0  0  0  0  0  0  0  0  0  0  0
    7.4630    0.3120    0.6920 N   0  0  0  0  0  0  0  0  0  0  0  0
    8.1400   -0.6190    1.2950 C   0  0  0  0  0  0  0  0  0  0  0  0
    8.4940   -1.9210    0.6220 C   0  0  1  0  0  0  0  0  0  0  0  0
    7.2400   -2.6500    0.1830 C   0  0  0  0  0  0  0  0  0  0  0  0
    9.3660   -1.6160   -0.5720 C   0  0  0  0  0  0  0  0  0  0  0  0
    8.7730   -0.8080   -1.5110 O   0  0  0  0  0  0  0  0  0  0  0  0
    8.5080   -0.3220    2.5990 C   0  0  0  0  0  0  0  0  0  0  0  0
    7.8120    1.3370    2.8300 S   0  0  0  0  0  0  0  0  0  0  0  0
    4.2520    1.4180   -1.2480 C   0  0  0  0  0  0  0  0  0  0  0  0
    2.9430    0.8720   -1.6650 C   0  0  0  0  0  0  0  0  0  0  0  0
    2.6450    0.4620   -2.8340 O   0  0  0  0  0  0  0  0  0  0  0  0
   -0.3570    1.0900   -0.8630 C   0  0  0  0  0  0  0  0  0  0  0  0
   -0.3360    2.3060   -1.2990 O   0  0  0  0  0  0  0  0  0  0  0  0
   -3.9840   -0.1260   -0.9580 C   0  0  0  0  0  0  0  0  0  0  0  0
   -5.1620    0.3890   -0.4790 C   0  0  0  0  0  0  0  0  0  0  0  0
   -6.2900   -0.4200   -0.2720 C   0  0  0  0  0  0  0  0  0  0  0  0
   -7.4620    0.2020    0.2130 N   0  0  0  0  0  0  0  0  0  0  0  0
   -8.6000   -0.4290    0.7620 C   0  0  0  0  0  0  0  0  0  0  0  0
   -8.6270   -1.6650    0.8660 O   0  0  0  0  0  0  0  0  0  0  0  0
   -9.7310    0.3700    1.2010 N   0  0  0  0  0  0  0  0  0  0  0  0
  -10.8940   -0.2860    1.7630 C   0  0  0  0  0  0  0  0  0  0  0  0
  -11.5480   -1.2510    0.8060 C   0  0  0  0  0  0  0  0  0  0  0  0
  -11.9790   -0.6090   -0.3590 O   0  0  0  0  0  0  0  0  0  0  0  0
  -12.5330   -1.5510   -1.1200 F   0  0  0  0  0  0  0  0  0  0  0  0
   -6.1810   -1.7500   -0.5650 C   0  0  0  0  0  0  0  0  0  0  0  0
   -4.9970   -2.3120   -1.0560 C   0  0  0  0  0  0  0  0  0  0  0  0
   -3.9260   -1.4710   -1.2390 C   0  0  0  0  0  0  0  0  0  0  0  0
   -2.7830   -2.0190   -1.7440 F   0  0  0  0  0  0  0  0  0  0  0  0
  1  2  1  0
  2  3  2  3
  2 28  1  0
  3  4  1  0
  3 26  1  0
  4  5  1  0
  5  6  2  0
  5  7  1  0
  7  8  1  0
  7 26  1  0
  8  9  1  0
  8 24  1  0
  9 10  1  0
 10 11  1  1
 10 12  1  0
 10 23  1  0
 12 13  1  0
 13 14  1  0
 14 15  2  0
 14 22  1  0
 15 16  1  0
 16 17  1  0
 16 21  2  0
 17 18  1  6
 17 19  1  0
 19 20  1  0
 21 22  1  0
 23 24  1  0
 24 25  2  0
 26 27  2  0
 28 29  2  0
 28 41  1  0
 29 30  1  0
 30 31  1  0
 30 39  2  0
 31 32  1  0
 32 33  2  0
 32 34  1  0
 34 35  1  0
 35 36  1  0
 36 37  1  0
 37 38  1  0
 39 40  1  0
 40 41  2  0
 41 42  1  0
M  END
