
     RDKit          3D

 42 45  0  0  0  0  0  0  0  0999 V2000
    6.4200   -0.5420    1.5700 C   0  0  0  0  0  0  0  0  0  0  0  0
    5.1360   -0.7000    0.8840 N   0  0  0  0  0  0  0  0  0  0  0  0
    4.6760    0.2220   -0.0850 C   0  0  0  0  0  0  0  0  0  0  0  0
    5.4660    1.2040   -0.3090 O   0  0  0  0  0  0  0  0  0  0  0  0
    3.3970    0.1330   -0.8230 C   0  0  1  0  0  0  0  0  0  0  0  0
    3.7210    0.3050   -2.3180 C   0  0  0  0  0  0  0  0  0  0  0  0
    4.4360   -1.3550   -2.5670 S   0  0  0  0  0  0  0  0  0  0  0  0
    3.3380   -2.1950   -1.3990 C   0  0  0  0  0  0  0  0  0  0  0  0
    2.7330   -1.1020   -0.6930 N   0  0  0  0  0  0  0  0  0  0  0  0
    1.5170   -1.3450    0.0860 C   0  0  0  0  0  0  0  0  0  0  0  0
    1.0400   -2.5260    0.0750 O   0  0  0  0  0  0  0  0  0  0  0  0
    0.8820   -0.2950    0.8410 C   0  0  0  0  0  0  0  0  0  0  0  0
   -0.1650   -0.3110    1.5680 C   0  0  0  0  0  0  0  0  0  0  0  0
   -0.6690    0.9190    2.2800 C   0  0  0  0  0  0  0  0  0  0  0  0
    0.0500    2.1200    1.9890 N   0  0  0  0  0  0  0  0  0  0  0  0
    0.1010    2.7130    0.6890 C   0  0  0  0  0  0  0  0  0  0  0  0
   -0.5230    2.1500   -0.2450 O   0  0  0  0  0  0  0  0  0  0  0  0
    0.8360    3.9300    0.3910 C   0  0  0  0  0  0  0  0  0  0  0  0
    1.4730    4.5530    1.3910 N   0  0  0  0  0  0  0  0  0  0  0  0
    2.1810    5.6840    1.2390 C   0  0  0  0  0  0  0  0  0  0  0  0
    3.0260    6.4860    2.6190 S   0  0  0  0  0  0  0  0  0  0  0  0
    2.2360    6.2120   -0.0360 C   0  0  0  0  0  0  0  0  0  0  0  0
    1.6080    5.6100   -1.0580 N   0  0  0  0  0  0  0  0  0  0  0  0
    0.9020    4.4680   -0.8670 C   0  0  0  0  0  0  0  0  0  0  0  0
    0.0800    3.6850   -2.2140 Cl  0  0  0  0  0  0  0  0  0  0  0  0
   -1.0230   -1.4960    1.7790 C   0  0  0  0  0  0  0  0  0  0  0  0
   -2.4260   -1.1320    1.3910 C   0  0  0  0  0  0  0  0  0  0  0  0
   -3.3460   -0.8960    2.3650 C   0  0  0  0  0  0  0  0  0  0  0  0
   -4.6410   -0.5530    2.0640 C   0  0  0  0  0  0  0  0  0  0  0  0
   -4.9780   -0.4560    0.7340 C   0  0  0  0  0  0  0  0  0  0  0  0
   -4.0250   -0.7000   -0.2530 C   0  0  0  0  0  0  0  0  0  0  0  0
   -2.7280   -1.0440    0.0330 C   0  0  0  0  0  0  0  0  0  0  0  0
   -1.7290   -1.3000   -0.8380 O   0  0  0  0  0  0  0  0  0  0  0  0
   -1.7500   -1.3050   -2.2160 C   0  0  0  0  0  0  0  0  0  0  0  0
   -2.6300   -2.3220   -2.8780 C   0  0  0  0  0  0  0  0  0  0  0  0
   -2.2320   -3.7350   -2.4970 C   0  0  0  0  0  0  0  0  0  0  0  0
   -3.1100   -4.7620   -3.1500 C   0  0  1  0  0  0  0  0  0  0  0  0
   -4.4410   -4.6000   -2.7850 F   0  0  0  0  0  0  0  0  0  0  0  0
   -3.0250   -4.7350   -4.5230 F   0  0  0  0  0  0  0  0  0  0  0  0
   -6.3190   -0.1020    0.6910 O   0  0  0  0  0  0  0  0  0  0  0  0
   -6.7740    0.2600    1.9730 C   0  0  0  0  0  0  0  0  0  0  0  0
   -5.7750   -0.2600    2.8230 O   0  0  0  0  0  0  0  0  0  0  0  0
  1  2  1  0
  2  3  1  0
  3  4  2  0
  5  3  1  1
  5  6  1  0
  5  9  1  0
  6  7  1  0
  7  8  1  0
  8  9  1  0
  9 10  1  0
 10 11  2  0
 10 12  1  0
 12 13  2  3
 13 14  1  0
 13 26  1  0
 14 15  1  0
 15 16  1  0
 16 17  2  0
 16 18  1  0
 18 19  2  0
 18 24  1  0
 19 20  1  0
 20 21  1  0
 20 22  2  0
 22 23  1  0
 23 24  2  0
 24 25  1  0
 26 27  1  0
 27 28  2  0
 27 32  1  0
 28 29  1  0
 29 30  2  0
 29 42  1  0
 30 31  1  0
 30 40  1  0
 31 32  2  0
 32 33  1  0
 33 34  1  0
 34 35  1  0
 35 36  1  0
 36 37  1  0
 37 38  1  6
 37 39  1  0
 40 41  1  0
 41 42  1  0
M  END
