
     RDKit          3D

 42 45  0  0  0  0  0  0  0  0999 V2000
   -1.9380   -3.6070   -2.7800 C   0  0  0  0  0  0  0  0  0  0  0  0
   -2.7570   -2.2820   -2.9000 C   0  0  1  0  0  0  0  0  0  0  0  0
   -4.1170   -2.6200   -3.4590 C   0  0  0  0  0  0  0  0  0  0  0  0
   -2.6920   -1.5300   -1.7710 N   0  0  0  0  0  0  0  0  0  0  0  0
   -3.1050   -0.8320   -0.8940 C   0  0  0  0  0  0  0  0  0  0  0  0
   -4.8420   -0.2490   -0.6630 S   0  0  0  0  0  0  0  0  0  0  0  0
   -5.2170   -0.8400    1.0060 C   0  0  1  0  0  0  0  0  0  0  0  0
   -5.5380   -2.3340    0.8140 C   0  0  0  0  0  0  0  0  0  0  0  0
   -4.0910   -0.6380    1.9790 C   0  0  1  0  0  0  0  0  0  0  0  0
   -4.1580   -1.7160    2.9310 N   0  0  0  0  0  0  0  0  0  0  0  0
   -5.1600   -1.5990    3.9330 C   0  0  0  0  0  0  0  0  0  0  0  0
   -6.1470   -2.5540    3.9730 F   0  0  0  0  0  0  0  0  0  0  0  0
   -2.7810   -0.3610    1.5260 C   0  0  0  0  0  0  0  0  0  0  0  0
   -1.9100   -0.0630    2.4190 O   0  0  0  0  0  0  0  0  0  0  0  0
   -2.2510   -0.3600    0.2000 N   0  0  0  0  0  0  0  0  0  0  0  0
   -0.9990    0.0330   -0.0740 O   0  0  0  0  0  0  0  0  0  0  0  0
   -0.4060    1.2130   -0.2310 C   0  0  0  0  0  0  0  0  0  0  0  0
   -1.0280    2.4250   -0.2830 C   0  0  0  0  0  0  0  0  0  0  0  0
   -2.7930    2.5200   -0.1610 Cl  0  0  0  0  0  0  0  0  0  0  0  0
   -0.3740    3.6020   -0.4250 C   0  0  0  0  0  0  0  0  0  0  0  0
    1.0280    3.6220   -0.5390 C   0  0  0  0  0  0  0  0  0  0  0  0
    1.7840    4.7980   -0.6220 N   0  0  0  0  0  0  0  0  0  0  0  0
    1.4590    5.9420    0.1320 C   0  0  0  0  0  0  0  0  0  0  0  0
    0.4690    5.8900    0.8880 O   0  0  0  0  0  0  0  0  0  0  0  0
    2.3050    7.1940    0.0300 C   0  0  0  0  0  0  0  0  0  0  0  0
    1.8440    8.1860    1.0730 C   0  0  0  0  0  0  0  0  0  0  0  0
    1.9870    7.5870    2.3500 O   0  0  0  0  0  0  0  0  0  0  0  0
    1.5630    8.4490    3.2410 F   0  0  0  0  0  0  0  0  0  0  0  0
    1.6380    2.3710   -0.4900 C   0  0  0  0  0  0  0  0  0  0  0  0
    1.0130    1.1820   -0.3430 C   0  0  0  0  0  0  0  0  0  0  0  0
    1.7540   -0.0600   -0.3440 C   0  0  0  0  0  0  0  0  0  0  0  0
    1.3760   -1.3210   -0.6550 C   0  0  0  0  0  0  0  0  0  0  0  0
    2.5220   -2.1040   -0.4750 C   0  0  0  0  0  0  0  0  0  0  0  0
    3.5360   -1.3170   -0.0720 C   0  0  0  0  0  0  0  0  0  0  0  0
    4.9280   -1.5710    0.2590 C   0  0  0  0  0  0  0  0  0  0  0  0
    5.5460   -0.5220    0.7180 O   0  0  0  0  0  0  0  0  0  0  0  0
    5.6480   -2.7540    0.1500 N   0  0  0  0  0  0  0  0  0  0  0  0
    5.3970   -4.0660   -0.3580 C   0  0  0  0  0  0  0  0  0  0  0  0
    6.4890   -4.3670   -1.4180 C   0  0  0  0  0  0  0  0  0  0  0  0
    7.9130   -3.6030   -0.5900 S   0  0  0  0  0  0  0  0  0  0  0  0
    7.0440   -2.7830    0.7550 C   0  0  0  0  0  0  0  0  0  0  0  0
    3.0250   -0.0750   -0.0060 O   0  0  0  0  0  0  0  0  0  0  0  0
  2  1  1  1
  2  3  1  0
  2  4  1  0
  4  5  2  3
  5  6  1  0
  5 15  1  0
  6  7  1  0
  7  8  1  6
  7  9  1  0
  9 10  1  6
  9 13  1  0
 10 11  1  0
 11 12  1  0
 13 14  2  0
 13 15  1  0
 15 16  1  0
 16 17  1  0
 17 18  2  0
 17 30  1  0
 18 19  1  0
 18 20  1  0
 20 21  2  0
 21 22  1  0
 21 29  1  0
 22 23  1  0
 23 24  2  0
 23 25  1  0
 25 26  1  0
 26 27  1  0
 27 28  1  0
 29 30  2  0
 30 31  1  0
 31 32  2  0
 31 42  1  0
 32 33  1  0
 33 34  2  0
 34 35  1  0
 34 42  1  0
 35 36  2  0
 35 37  1  0
 37 38  1  0
 37 41  1  0
 38 39  1  0
 39 40  1  0
 40 41  1  0
M  END
