
     RDKit          3D

 47 53  0  0  0  0  0  0  0  0999 V2000
   -1.8440   -1.2480    2.2440 C   0  0  0  0  0  0  0  0  0  0  0  0
   -2.4230    0.3660    1.6730 S   0  0  0  0  0  0  0  0  0  0  0  0
   -2.5680    0.4340   -0.1190 C   0  0  1  0  0  0  0  0  0  0  0  0
   -3.6310   -0.4750   -0.6360 C   0  0  0  0  0  0  0  0  0  0  0  0
   -3.3160   -1.3750   -1.4420 O   0  0  0  0  0  0  0  0  0  0  0  0
   -4.9810   -0.3560   -0.2490 N   0  0  0  0  0  0  0  0  0  0  0  0
   -6.0790   -1.1480   -0.6600 C   0  0  0  0  0  0  0  0  0  0  0  0
   -5.9820   -2.2680   -1.4480 C   0  0  0  0  0  0  0  0  0  0  0  0
   -7.1020   -3.0120   -1.8330 C   0  0  0  0  0  0  0  0  0  0  0  0
   -8.3450   -2.6110   -1.4100 C   0  0  0  0  0  0  0  0  0  0  0  0
   -9.6020   -3.0610   -1.5760 N   0  0  0  0  0  0  0  0  0  0  0  0
  -10.4460   -2.2880   -0.9420 N   0  0  0  0  0  0  0  0  0  0  0  0
   -9.7990   -1.2780   -0.3160 C   0  0  0  0  0  0  0  0  0  0  0  0
  -10.3670   -0.2090    0.4920 C   0  0  0  0  0  0  0  0  0  0  0  0
   -9.8660    0.1900    1.7100 C   0  0  0  0  0  0  0  0  0  0  0  0
  -10.4690    1.2270    2.4210 C   0  0  0  0  0  0  0  0  0  0  0  0
  -11.5810    1.8810    1.9290 C   0  0  0  0  0  0  0  0  0  0  0  0
  -12.1610    2.9010    2.6460 F   0  0  0  0  0  0  0  0  0  0  0  0
  -12.0830    1.4840    0.7140 C   0  0  0  0  0  0  0  0  0  0  0  0
  -11.4770    0.4530    0.0140 C   0  0  0  0  0  0  0  0  0  0  0  0
   -8.4530   -1.4850   -0.6150 C   0  0  0  0  0  0  0  0  0  0  0  0
   -7.3530   -0.7860   -0.2590 C   0  0  0  0  0  0  0  0  0  0  0  0
   -2.7900    1.8730   -0.5200 C   0  0  0  0  0  0  0  0  0  0  0  0
   -1.3520    2.4020   -0.4120 C   0  0  0  0  0  0  0  0  0  0  0  0
   -0.5460    1.3310   -0.9750 N   0  0  1  0  0  0  0  0  0  0  0  0
    0.7990    1.3360   -0.4790 C   0  0  0  0  0  0  0  0  0  0  0  0
    1.6290    0.2270   -0.8960 C   0  0  0  0  0  0  0  0  0  0  0  0
    1.1970   -0.6720   -1.6430 O   0  0  0  0  0  0  0  0  0  0  0  0
    2.9760    0.1270   -0.4650 N   0  0  0  0  0  0  0  0  0  0  0  0
    3.8270   -0.9870   -0.8680 C   0  0  0  0  0  0  0  0  0  0  0  0
    5.0410   -0.3360   -1.5510 C   0  0  0  0  0  0  0  0  0  0  0  0
    5.7250    0.3660   -0.5100 N   0  0  0  0  0  0  0  0  0  0  0  0
    7.1190    0.2320   -0.3340 C   0  0  0  0  0  0  0  0  0  0  0  0
    7.8880   -0.7090   -0.9690 C   0  0  0  0  0  0  0  0  0  0  0  0
    9.2700   -0.8160   -0.7800 C   0  0  0  0  0  0  0  0  0  0  0  0
    9.9220    0.0430    0.0720 C   0  0  0  0  0  0  0  0  0  0  0  0
   11.3670   -0.0930    0.2560 C   0  0  0  0  0  0  0  0  0  0  0  0
   12.0680   -1.0530   -0.3890 N   0  0  0  0  0  0  0  0  0  0  0  0
   13.3810   -1.2190   -0.2570 C   0  0  0  0  0  0  0  0  0  0  0  0
   14.0960   -0.3880    0.5720 C   0  0  0  0  0  0  0  0  0  0  0  0
   13.4060    0.5990    1.2410 C   0  0  0  0  0  0  0  0  0  0  0  0
   12.0630    0.7230    1.0680 N   0  0  0  0  0  0  0  0  0  0  0  0
    9.1810    0.9920    0.7190 C   0  0  0  0  0  0  0  0  0  0  0  0
    7.8230    1.0900    0.5280 C   0  0  0  0  0  0  0  0  0  0  0  0
    5.0170    1.2340    0.4120 C   0  0  0  0  0  0  0  0  0  0  0  0
    3.5420    1.1290    0.3870 C   0  0  0  0  0  0  0  0  0  0  0  0
   -1.2640    0.1200   -0.8130 C   0  0  0  0  0  0  0  0  0  0  0  0
  1  2  1  0
  3  2  1  1
  3  4  1  0
  3 23  1  0
  3 47  1  0
  4  5  2  0
  4  6  1  0
  6  7  1  0
  7  8  2  0
  7 22  1  0
  8  9  1  0
  9 10  2  0
 10 11  1  0
 10 21  1  0
 11 12  1  0
 12 13  2  0
 13 14  1  0
 13 21  1  0
 14 15  2  0
 14 20  1  0
 15 16  1  0
 16 17  2  0
 17 18  1  0
 17 19  1  0
 19 20  2  0
 21 22  2  0
 23 24  1  0
 24 25  1  0
 25 26  1  1
 25 47  1  0
 26 27  1  0
 27 28  2  0
 27 29  1  0
 29 30  1  0
 29 46  1  0
 30 31  1  0
 31 32  1  0
 32 33  1  0
 32 45  1  0
 33 34  2  0
 33 44  1  0
 34 35  1  0
 35 36  2  0
 36 37  1  0
 36 43  1  0
 37 38  2  0
 37 42  1  0
 38 39  1  0
 39 40  2  0
 40 41  1  0
 41 42  2  0
 43 44  2  0
 45 46  1  0
M  CHG  1  25   1
M  END
