
     RDKit          3D

 41 44  0  0  0  0  0  0  0  0999 V2000
    4.5270   -4.4400    2.6510 N   0  0  0  0  0  0  0  0  0  0  0  0
    3.4420   -4.6740    2.7310 C   0  0  0  0  0  0  0  0  0  0  0  0
    1.9770   -4.9720    2.8340 C   0  0  0  0  0  0  0  0  0  0  0  0
    1.2100   -4.9430    1.2190 S   0  0  0  0  0  0  0  0  0  0  0  0
    1.2400   -3.3800    0.4540 C   0  0  0  0  0  0  0  0  0  0  0  0
    2.0390   -3.3030   -0.5860 O   0  0  0  0  0  0  0  0  0  0  0  0
    0.5610   -2.1910    0.7770 C   0  0  0  0  0  0  0  0  0  0  0  0
    0.8790   -0.9480   -0.0270 C   0  0  0  0  0  0  0  0  0  0  0  0
    2.3130   -0.5660    0.1020 C   0  0  0  0  0  0  0  0  0  0  0  0
    3.0440   -1.3340    0.7560 O   0  0  0  0  0  0  0  0  0  0  0  0
    2.8430    0.5930   -0.4750 N   0  0  0  0  0  0  0  0  0  0  0  0
    4.1900    1.0580   -0.4300 C   0  0  0  0  0  0  0  0  0  0  0  0
    5.2140    0.3610    0.1450 C   0  0  0  0  0  0  0  0  0  0  0  0
    6.5150    0.8710    0.1420 C   0  0  0  0  0  0  0  0  0  0  0  0
    7.8050   -0.0670    0.8920 Cl  0  0  0  0  0  0  0  0  0  0  0  0
    6.8140    2.0830   -0.4350 C   0  0  0  0  0  0  0  0  0  0  0  0
    5.7670    2.7610   -1.0030 C   0  0  0  0  0  0  0  0  0  0  0  0
    4.4940    2.2700   -1.0040 C   0  0  0  0  0  0  0  0  0  0  0  0
    3.6550    3.2730   -1.6930 C   0  0  0  0  0  0  0  0  0  0  0  0
    4.3940    4.4590   -1.6240 O   0  0  0  0  0  0  0  0  0  0  0  0
    5.7380    4.0870   -1.7070 C   0  0  0  0  0  0  0  0  0  0  0  0
   -0.3540   -2.0610    1.7380 C   0  0  0  0  0  0  0  0  0  0  0  0
   -0.8360   -3.0710    2.6140 C   0  0  0  0  0  0  0  0  0  0  0  0
   -1.7290   -2.7280    3.5150 O   0  0  0  0  0  0  0  0  0  0  0  0
   -0.8610   -0.7350    1.8320 O   0  0  0  0  0  0  0  0  0  0  0  0
   -2.0640   -0.2830    2.2440 C   0  0  0  0  0  0  0  0  0  0  0  0
   -3.3150   -0.6780    1.5590 C   0  0  0  0  0  0  0  0  0  0  0  0
   -3.4220   -0.3100    0.1540 N   0  0  0  0  0  0  0  0  0  0  0  0
   -2.6130   -1.0000   -0.8340 C   0  0  0  0  0  0  0  0  0  0  0  0
   -3.3500   -1.3700   -2.0550 C   0  0  0  0  0  0  0  0  0  0  0  0
   -3.1790   -2.5550   -2.4350 O   0  0  0  0  0  0  0  0  0  0  0  0
   -4.2010   -0.5540   -2.8230 N   0  0  0  0  0  0  0  0  0  0  0  0
   -4.8780    0.6740   -2.6170 C   0  0  2  0  0  0  0  0  0  0  0  0
   -4.1770    2.0070   -3.6650 S   0  0  0  0  0  0  0  0  0  0  0  0
   -4.9480    1.1690   -1.2580 C   0  0  0  0  0  0  0  0  0  0  0  0
   -5.7930    2.2530   -1.1850 C   0  0  0  0  0  0  0  0  0  0  0  0
   -6.0190    2.9070    0.0100 C   0  0  0  0  0  0  0  0  0  0  0  0
   -5.3760    2.4560    1.1610 C   0  0  0  0  0  0  0  0  0  0  0  0
   -5.6330    3.1400    2.3000 F   0  0  0  0  0  0  0  0  0  0  0  0
   -4.5570    1.4000    1.0780 N   0  0  0  0  0  0  0  0  0  0  0  0
   -4.3350    0.7560   -0.1070 C   0  0  0  0  0  0  0  0  0  0  0  0
  1  2  3  0
  2  3  1  0
  3  4  1  0
  4  5  1  0
  5  6  2  0
  5  7  1  0
  7  8  1  0
  7 22  2  3
  8  9  1  0
  9 10  2  0
  9 11  1  0
 11 12  1  0
 12 13  2  0
 12 18  1  0
 13 14  1  0
 14 15  1  0
 14 16  2  0
 16 17  1  0
 17 18  2  0
 17 21  1  0
 18 19  1  0
 19 20  1  0
 20 21  1  0
 22 23  1  0
 22 25  1  0
 23 24  2  0
 25 26  1  0
 26 27  1  0
 27 28  1  0
 28 29  1  0
 28 41  1  0
 29 30  1  0
 30 31  2  0
 30 32  1  0
 32 33  1  0
 33 34  1  6
 33 35  1  0
 35 36  2  0
 35 41  1  0
 36 37  1  0
 37 38  2  0
 38 39  1  0
 38 40  1  0
 40 41  2  0
M  END
