
     RDKit          3D

 31 33  0  0  0  0  0  0  0  0999 V2000
    7.3170   -2.2490   -0.6720 C   0  0  0  0  0  0  0  0  0  0  0  0
    5.5440   -2.1680   -0.9530 S   0  0  0  0  0  0  0  0  0  0  0  0
    4.9460   -0.5070   -1.1100 C   0  0  0  0  0  0  0  0  0  0  0  0
    5.0410    0.2220    0.2000 C   0  0  0  0  0  0  0  0  0  0  0  0
    3.9750    0.5130    0.8640 C   0  0  0  0  0  0  0  0  0  0  0  0
    2.6010    0.1850    0.5220 C   0  0  0  0  0  0  0  0  0  0  0  0
    1.7650    0.7610    1.3440 O   0  0  0  0  0  0  0  0  0  0  0  0
    2.0200   -0.5840   -0.4450 N   0  0  0  0  0  0  0  0  0  0  0  0
    0.6150   -0.7710   -0.6490 C   0  0  0  0  0  0  0  0  0  0  0  0
   -0.3870   -0.2550    0.1110 C   0  0  0  0  0  0  0  0  0  0  0  0
   -1.7390   -0.4950   -0.1560 C   0  0  0  0  0  0  0  0  0  0  0  0
   -2.7550    0.0240    0.6130 C   0  0  0  0  0  0  0  0  0  0  0  0
   -4.0750   -0.2120    0.3530 C   0  0  0  0  0  0  0  0  0  0  0  0
   -5.1600    0.3370    1.1710 C   0  0  0  0  0  0  0  0  0  0  0  0
   -5.8860    1.5030    0.5590 C   0  0  0  0  0  0  0  0  0  0  0  0
   -6.9520    1.9280    1.5240 C   0  0  0  0  0  0  0  0  0  0  0  0
   -7.7980    3.0120    1.2000 N   0  0  0  0  0  0  0  0  0  0  0  0
   -7.1200    1.3470    2.6250 O   0  0  0  0  0  0  0  0  0  0  0  0
   -4.4000   -1.0170   -0.7440 C   0  0  0  0  0  0  0  0  0  0  0  0
   -5.7230   -1.2760   -1.0360 O   0  0  0  0  0  0  0  0  0  0  0  0
   -3.3910   -1.5360   -1.5140 C   0  0  0  0  0  0  0  0  0  0  0  0
   -3.6220   -2.3930   -2.6860 C   0  0  0  0  0  0  0  0  0  0  0  0
   -2.0430   -1.2820   -1.2290 C   0  0  0  0  0  0  0  0  0  0  0  0
   -1.0460   -1.7920   -1.9810 N   0  0  0  0  0  0  0  0  0  0  0  0
    0.2530   -1.5750   -1.7440 C   0  0  0  0  0  0  0  0  0  0  0  0
    1.1570   -2.0750   -2.4790 O   0  0  0  0  0  0  0  0  0  0  0  0
    4.1500    1.4050    2.0920 C   0  0  0  0  0  0  0  0  0  0  0  0
    5.3980    1.3020    2.7070 N   0  0  0  0  0  0  0  0  0  0  0  0
    6.5610    1.0020    1.9520 C   0  0  0  0  0  0  0  0  0  0  0  0
    7.6980    1.2440    2.4530 O   0  0  0  0  0  0  0  0  0  0  0  0
    6.4060    0.4480    0.6770 N   0  0  0  0  0  0  0  0  0  0  0  0
  1  2  1  0
  2  3  1  0
  3  4  1  0
  4  5  2  0
  4 31  1  0
  5  6  1  0
  5 27  1  0
  6  7  2  0
  6  8  1  0
  8  9  1  0
  9 10  2  0
  9 25  1  0
 10 11  1  0
 11 12  2  0
 11 23  1  0
 12 13  1  0
 13 14  1  0
 13 19  2  0
 14 15  1  0
 15 16  1  0
 16 17  1  0
 16 18  2  0
 19 20  1  0
 19 21  1  0
 21 22  1  0
 21 23  2  0
 23 24  1  0
 24 25  1  0
 25 26  2  0
 27 28  1  0
 28 29  1  0
 29 30  2  0
 29 31  1  0
M  END
