
     RDKit          3D

 42 46  0  0  0  0  0  0  0  0999 V2000
   -4.3680    0.4960    2.0080 O   0  0  0  0  0  0  0  0  0  0  0  0
   -3.6140    0.0470    1.0980 C   0  0  0  0  0  0  0  0  0  0  0  0
   -4.2460   -0.6620    0.0530 N   0  0  0  0  0  0  0  0  0  0  0  0
   -5.6720   -0.9070   -0.0420 C   0  0  1  0  0  0  0  0  0  0  0  0
   -6.2770   -0.1120   -1.1890 C   0  0  0  0  0  0  0  0  0  0  0  0
   -6.0150    1.2910   -0.8850 N   0  0  0  0  0  0  0  0  0  0  0  0
   -4.9380    2.0100   -1.2500 C   0  0  0  0  0  0  0  0  0  0  0  0
   -5.1240    3.2670   -0.7460 C   0  0  0  0  0  0  0  0  0  0  0  0
   -6.2830    3.3200   -0.0900 N   0  0  0  0  0  0  0  0  0  0  0  0
   -6.8300    2.0940   -0.1800 C   0  0  0  0  0  0  0  0  0  0  0  0
   -5.8800   -2.3610   -0.2340 C   0  0  0  0  0  0  0  0  0  0  0  0
   -6.5910   -2.8410   -1.3410 C   0  0  0  0  0  0  0  0  0  0  0  0
   -6.8080   -4.1850   -1.5570 C   0  0  0  0  0  0  0  0  0  0  0  0
   -6.3210   -5.1180   -0.6700 C   0  0  0  0  0  0  0  0  0  0  0  0
   -6.5790   -6.8440   -0.9130 Cl  0  0  0  0  0  0  0  0  0  0  0  0
   -5.6210   -4.6710    0.4220 C   0  0  0  0  0  0  0  0  0  0  0  0
   -5.4010   -3.3060    0.6400 C   0  0  0  0  0  0  0  0  0  0  0  0
   -4.5020   -2.8220    2.0520 Cl  0  0  0  0  0  0  0  0  0  0  0  0
   -2.1960    0.2860    1.1900 C   0  0  0  0  0  0  0  0  0  0  0  0
   -1.3300   -0.1760    0.2310 C   0  0  0  0  0  0  0  0  0  0  0  0
    0.0470    0.0670    0.3380 C   0  0  0  0  0  0  0  0  0  0  0  0
    0.5580    0.7690    1.4020 C   0  0  0  0  0  0  0  0  0  0  0  0
    2.0080    1.0310    1.5270 C   0  0  0  0  0  0  0  0  0  0  0  0
    2.5750    1.7090    2.5400 N   0  0  0  0  0  0  0  0  0  0  0  0
    3.8720    1.7260    2.2860 N   0  0  0  0  0  0  0  0  0  0  0  0
    4.1230    1.0730    1.1370 C   0  0  0  0  0  0  0  0  0  0  0  0
    5.4270    0.8770    0.5250 C   0  0  0  0  0  0  0  0  0  0  0  0
    5.5600    0.1890   -0.6590 C   0  0  0  0  0  0  0  0  0  0  0  0
    6.7700   -0.0180   -1.2680 C   0  0  0  0  0  0  0  0  0  0  0  0
    7.9670    0.4750   -0.7000 C   0  0  0  0  0  0  0  0  0  0  0  0
    9.1240    0.2370   -1.3460 O   0  0  0  0  0  0  0  0  0  0  0  0
   10.4390    0.5040   -1.2140 C   0  0  0  0  0  0  0  0  0  0  0  0
   10.9180    1.9160   -1.2520 C   0  0  1  0  0  0  0  0  0  0  0  0
   10.5690    2.5060   -2.4800 F   0  0  0  0  0  0  0  0  0  0  0  0
   10.6160    2.7140   -0.2110 F   0  0  0  0  0  0  0  0  0  0  0  0
   12.3290    1.8280   -1.3490 F   0  0  0  0  0  0  0  0  0  0  0  0
    7.8140    1.1590    0.4840 C   0  0  0  0  0  0  0  0  0  0  0  0
    6.5820    1.3610    1.0890 C   0  0  0  0  0  0  0  0  0  0  0  0
    6.4840    2.0480    2.2630 F   0  0  0  0  0  0  0  0  0  0  0  0
    2.9560    0.6660    0.7090 O   0  0  0  0  0  0  0  0  0  0  0  0
   -0.3110    1.2330    2.3650 C   0  0  0  0  0  0  0  0  0  0  0  0
   -1.6870    0.9870    2.2520 C   0  0  0  0  0  0  0  0  0  0  0  0
  1  2  2  0
  2  3  1  0
  2 19  1  0
  3  4  1  0
  4  5  1  6
  4 11  1  0
  5  6  1  0
  6  7  1  0
  6 10  1  0
  7  8  2  0
  8  9  1  0
  9 10  2  0
 11 12  2  0
 11 17  1  0
 12 13  1  0
 13 14  2  0
 14 15  1  0
 14 16  1  0
 16 17  2  0
 17 18  1  0
 19 20  2  0
 19 42  1  0
 20 21  1  0
 21 22  2  0
 22 23  1  0
 22 41  1  0
 23 24  2  0
 23 40  1  0
 24 25  1  0
 25 26  2  0
 26 27  1  0
 26 40  1  0
 27 28  2  0
 27 38  1  0
 28 29  1  0
 29 30  2  0
 30 31  1  0
 30 37  1  0
 31 32  1  0
 32 33  1  0
 33 34  1  6
 33 35  1  0
 33 36  1  0
 37 38  2  0
 38 39  1  0
 41 42  2  0
M  END
