
     RDKit          3D

 42 45  0  0  0  0  0  0  0  0999 V2000
   -0.0780   -4.8100   -0.6600 C   0  0  0  0  0  0  0  0  0  0  0  0
   -1.0520   -3.8190   -0.1380 C   0  0  0  0  0  0  0  0  0  0  0  0
   -2.2870   -3.6170   -0.5540 N   0  0  0  0  0  0  0  0  0  0  0  0
   -2.9030   -2.6600    0.1700 C   0  0  0  0  0  0  0  0  0  0  0  0
   -4.2110   -2.1180   -0.0700 C   0  0  0  0  0  0  0  0  0  0  0  0
   -5.0180   -2.1890   -0.9590 O   0  0  0  0  0  0  0  0  0  0  0  0
   -4.7350   -1.2530    1.0180 O   0  0  0  0  0  0  0  0  0  0  0  0
   -6.0020   -0.6900    0.8590 C   0  0  0  0  0  0  0  0  0  0  0  0
   -6.1180    0.3440   -0.1690 C   0  0  0  0  0  0  0  0  0  0  0  0
   -5.0380    0.8290   -0.6380 O   0  0  0  0  0  0  0  0  0  0  0  0
   -7.3610    0.7870   -0.6210 N   0  0  0  0  0  0  0  0  0  0  0  0
   -7.4720    1.8880   -1.5430 C   0  0  0  0  0  0  0  0  0  0  0  0
   -8.2290    2.9830   -0.8260 C   0  0  0  0  0  0  0  0  0  0  0  0
   -9.3100    2.5040    0.0830 C   0  0  1  0  0  0  0  0  0  0  0  0
  -10.5940    3.2300   -0.2690 C   0  0  0  0  0  0  0  0  0  0  0  0
  -11.3830    2.1790   -1.0490 C   0  0  0  0  0  0  0  0  0  0  0  0
  -10.4140    1.2010   -1.3890 O   0  0  0  0  0  0  0  0  0  0  0  0
   -9.7310    1.0760   -0.1900 C   0  0  1  0  0  0  0  0  0  0  0  0
   -8.6030    0.1270   -0.2330 C   0  0  0  0  0  0  0  0  0  0  0  0
   -1.9470   -2.2500    1.1100 C   0  0  0  0  0  0  0  0  0  0  0  0
   -2.2900   -1.2840    2.2080 C   0  0  0  0  0  0  0  0  0  0  0  0
   -0.7870   -2.9360    0.9450 C   0  0  0  0  0  0  0  0  0  0  0  0
    0.4900   -2.9900    1.6940 C   0  0  0  0  0  0  0  0  0  0  0  0
    1.3770   -1.9160    1.4430 N   0  0  0  0  0  0  0  0  0  0  0  0
    1.3420   -0.5390    1.5050 C   0  0  0  0  0  0  0  0  0  0  0  0
    0.3200    0.0550    1.8820 O   0  0  0  0  0  0  0  0  0  0  0  0
    2.5620    0.2770    1.0940 C   0  0  2  0  0  0  0  0  0  0  0  0
    2.1580    0.9530   -0.2680 C   0  0  0  0  0  0  0  0  0  0  0  0
    3.6560   -0.4810    0.9670 O   0  0  0  0  0  0  0  0  0  0  0  0
    4.9780   -0.3730    0.8770 C   0  0  0  0  0  0  0  0  0  0  0  0
    5.6600    0.8550    0.7320 C   0  0  0  0  0  0  0  0  0  0  0  0
    7.0240    0.9130    0.6550 C   0  0  0  0  0  0  0  0  0  0  0  0
    7.8350   -0.2430    0.7180 C   0  0  0  0  0  0  0  0  0  0  0  0
    9.1330   -0.1930    0.6470 O   0  0  0  0  0  0  0  0  0  0  0  0
   10.3740    0.1160    0.5450 C   0  0  0  0  0  0  0  0  0  0  0  0
   10.8710    0.6530   -0.7990 C   0  0  1  0  0  0  0  0  0  0  0  0
   10.6370   -0.3300   -1.7890 O   0  0  0  0  0  0  0  0  0  0  0  0
   10.2000    1.9480   -1.1660 C   0  0  0  0  0  0  0  0  0  0  0  0
   10.7240    2.4710   -2.4960 C   0  0  0  0  0  0  0  0  0  0  0  0
   12.5240    2.7780   -2.3760 S   0  0  0  0  0  0  0  0  0  0  0  0
    7.1380   -1.4420    0.8620 C   0  0  0  0  0  0  0  0  0  0  0  0
    5.7780   -1.4960    0.9360 C   0  0  0  0  0  0  0  0  0  0  0  0
  1  2  1  0
  2  3  1  0
  2 22  2  0
  3  4  1  0
  4  5  1  0
  4 20  2  0
  5  6  2  0
  5  7  1  0
  7  8  1  0
  8  9  1  0
  9 10  2  0
  9 11  1  0
 11 12  1  0
 11 19  1  0
 12 13  1  0
 14 13  1  6
 14 15  1  0
 14 18  1  0
 15 16  1  0
 16 17  1  0
 17 18  1  0
 18 19  1  6
 20 21  1  0
 20 22  1  0
 22 23  1  0
 23 24  1  0
 24 25  1  0
 25 26  2  0
 25 27  1  0
 27 28  1  6
 27 29  1  0
 29 30  1  0
 30 31  2  0
 30 42  1  0
 31 32  1  0
 32 33  2  0
 33 34  1  0
 33 41  1  0
 34 35  1  0
 35 36  1  0
 36 37  1  6
 36 38  1  0
 38 39  1  0
 39 40  1  0
 41 42  2  0
M  END
