
     RDKit          3D

 42 45  0  0  0  0  0  0  0  0999 V2000
    3.6940   -3.3260   -1.8750 C   0  0  0  0  0  0  0  0  0  0  0  0
    4.1290   -2.4730   -2.8230 O   0  0  0  0  0  0  0  0  0  0  0  0
    3.5110   -1.2780   -3.0350 C   0  0  0  0  0  0  0  0  0  0  0  0
    3.4820   -0.2800   -1.9450 C   0  0  0  0  0  0  0  0  0  0  0  0
    2.9190   -0.4630   -0.8190 O   0  0  0  0  0  0  0  0  0  0  0  0
    1.6980   -0.5770   -0.3560 C   0  0  2  0  0  0  0  0  0  0  0  0
    1.8480   -0.6600    1.1860 C   0  0  2  0  0  0  0  0  0  0  0  0
    2.4330    0.6010    1.7710 C   0  0  0  0  0  0  0  0  0  0  0  0
    3.7940    0.9470    1.2370 C   0  0  0  0  0  0  0  0  0  0  0  0
    4.6330   -0.2320    1.2430 N   0  0  0  0  0  0  0  0  0  0  0  0
    5.9720   -0.0990    0.7980 C   0  0  0  0  0  0  0  0  0  0  0  0
    6.7530   -1.0840    0.7780 O   0  0  0  0  0  0  0  0  0  0  0  0
    6.5170    1.1380    0.3520 N   0  0  0  0  0  0  0  0  0  0  0  0
    7.8790    1.2780   -0.1020 C   0  0  0  0  0  0  0  0  0  0  0  0
    8.1070    2.7190   -0.4960 C   0  0  1  0  0  0  0  0  0  0  0  0
    9.5370    2.9590   -0.9340 C   0  0  0  0  0  0  0  0  0  0  0  0
    7.2720    3.1360   -1.5050 O   0  0  0  0  0  0  0  0  0  0  0  0
    4.1840   -1.5250    1.6790 C   0  0  0  0  0  0  0  0  0  0  0  0
    2.7240   -1.7650    1.6480 C   0  0  0  0  0  0  0  0  0  0  0  0
    0.9810   -1.8380   -0.7170 C   0  0  0  0  0  0  0  0  0  0  0  0
   -0.4060   -1.7910   -0.0970 C   0  0  0  0  0  0  0  0  0  0  0  0
   -1.3340   -2.7820    0.9180 S   0  0  0  0  0  0  0  0  0  0  0  0
   -2.8000   -1.7540    0.9880 C   0  0  0  0  0  0  0  0  0  0  0  0
   -4.0100   -2.0740    1.7370 C   0  0  0  0  0  0  0  0  0  0  0  0
   -4.0340   -3.1480    2.3830 O   0  0  0  0  0  0  0  0  0  0  0  0
   -5.1140   -1.2630    1.7680 O   0  0  0  0  0  0  0  0  0  0  0  0
   -6.2910   -1.5370    2.4740 C   0  0  0  0  0  0  0  0  0  0  0  0
   -7.3050   -0.4660    2.3080 C   0  0  0  0  0  0  0  0  0  0  0  0
   -8.4110   -0.6020    2.9030 O   0  0  0  0  0  0  0  0  0  0  0  0
   -7.1060    0.6920    1.5270 N   0  0  0  0  0  0  0  0  0  0  0  0
   -5.8860    0.9630    0.7980 C   0  0  0  0  0  0  0  0  0  0  0  0
   -8.1710    1.6690    1.4420 C   0  0  0  0  0  0  0  0  0  0  0  0
   -9.0370    1.2940    0.2710 C   0  0  0  0  0  0  0  0  0  0  0  0
   -8.8790    0.2660   -0.5470 C   0  0  0  0  0  0  0  0  0  0  0  0
   -9.9490    0.2470   -1.5750 C   0  0  0  0  0  0  0  0  0  0  0  0
  -10.7620    1.4420   -1.2180 C   0  0  0  0  0  0  0  0  0  0  0  0
  -10.2280    2.0220   -0.1680 C   0  0  0  0  0  0  0  0  0  0  0  0
   -2.4420   -0.7340    0.2190 C   0  0  0  0  0  0  0  0  0  0  0  0
   -1.2310   -0.7050   -0.3580 C   0  0  0  0  0  0  0  0  0  0  0  0
   -0.5210    0.2870   -1.2680 C   0  0  1  0  0  0  0  0  0  0  0  0
   -1.2800    1.4520   -1.2900 O   0  0  0  0  0  0  0  0  0  0  0  0
    0.7970    0.6170   -0.6710 C   0  0  0  0  0  0  0  0  0  0  0  0
  1  2  1  0
  2  3  1  0
  3  4  1  0
  4  5  1  0
  6  5  1  6
  6  7  1  0
  6 20  1  0
  6 42  1  0
  7  8  1  6
  7 19  1  0
  8  9  1  0
  9 10  1  0
 10 11  1  0
 10 18  1  0
 11 12  2  0
 11 13  1  0
 13 14  1  0
 14 15  1  0
 15 16  1  6
 15 17  1  0
 18 19  1  0
 20 21  1  0
 21 22  1  0
 21 39  2  0
 22 23  1  0
 23 24  1  0
 23 38  2  0
 24 25  2  0
 24 26  1  0
 26 27  1  0
 27 28  1  0
 28 29  2  0
 28 30  1  0
 30 31  1  0
 30 32  1  0
 32 33  1  0
 33 34  2  0
 33 37  1  0
 34 35  1  0
 35 36  1  0
 36 37  2  0
 38 39  1  0
 39 40  1  0
 40 41  1  1
 40 42  1  0
M  END
