
     RDKit          3D

 10 10  0  0  0  0  0  0  0  0999 V2000
    2.1590   -1.8670    0.3470 O   0  0  0  0  0  0  0  0  0  0  0  0
    1.8400   -0.6990    0.0140 C   0  0  0  0  0  0  0  0  0  0  0  0
    2.8280    0.2110   -0.4070 N   0  0  0  0  0  0  0  0  0  0  0  0
    4.1150   -0.2430   -0.4300 O   0  0  0  0  0  0  0  0  0  0  0  0
    0.4440   -0.3040    0.0700 C   0  0  0  0  0  0  0  0  0  0  0  0
   -0.0290    0.8830   -0.2490 C   0  0  0  0  0  0  0  0  0  0  0  0
   -1.4270    1.3210   -0.2070 C   0  0  0  0  0  0  0  0  0  0  0  0
   -2.3430    0.2400    0.3080 C   0  0  0  0  0  0  0  0  0  0  0  0
   -1.5660   -0.5190    1.3680 C   0  0  0  0  0  0  0  0  0  0  0  0
   -0.5650   -1.3270    0.5300 C   0  0  0  0  0  0  0  0  0  0  0  0
  1  2  2  0
  2  3  1  0
  2  5  1  0
  3  4  1  0
  5  6  2  0
  5 10  1  0
  6  7  1  0
  7  8  1  0
  8  9  1  0
  9 10  1  0
M  END
