
     RDKit          3D

 12 11  0  0  0  0  0  0  0  0999 V2000
    0.2900   -0.3210   -1.9490 N   0  0  0  0  0  0  0  0  0  0  0  0
   -0.0640   -0.1210   -0.5860 C   0  0  2  0  0  0  0  0  0  0  0  0
   -1.1240    0.7100   -0.3600 O   0  0  0  0  0  0  0  0  0  0  0  0
   -2.1820    0.1880    0.3030 C   0  0  2  0  0  0  0  0  0  0  0  0
   -3.3840    0.2030   -0.3950 O   0  0  0  0  0  0  0  0  0  0  0  0
   -2.4480    0.8940    1.6330 C   0  0  0  0  0  0  0  0  0  0  0  0
   -3.5290    0.3460    2.2900 O   0  0  0  0  0  0  0  0  0  0  0  0
    1.1400    0.4140    0.1700 C   0  0  2  0  0  0  0  0  0  0  0  0
    1.5850    1.6110   -0.3370 O   0  0  0  0  0  0  0  0  0  0  0  0
    2.2370   -0.6350    0.1770 C   0  0  0  0  0  0  0  0  0  0  0  0
    3.3010   -0.2200    0.9520 O   0  0  0  0  0  0  0  0  0  0  0  0
    4.2320   -1.1380    0.9430 O   0  0  0  0  0  0  0  0  0  0  0  0
  2  1  1  6
  2  3  1  0
  2  8  1  0
  3  4  1  0
  4  5  1  6
  4  6  1  0
  6  7  1  0
  8  9  1  6
  8 10  1  0
 10 11  1  0
 11 12  1  0
M  END
