
     RDKit          3D

 13 12  0  0  0  0  0  0  0  0999 V2000
   -1.9050    1.9170   -0.1530 N   0  0  0  0  0  0  0  0  0  0  0  0
   -2.1650    0.8200   -0.9860 C   0  0  0  0  0  0  0  0  0  0  0  0
   -2.9560    0.9370   -1.9480 O   0  0  0  0  0  0  0  0  0  0  0  0
   -1.5190   -0.4870   -0.7480 C   0  0  1  0  0  0  0  0  0  0  0  0
   -1.9160   -1.4390   -1.6900 O   0  0  0  0  0  0  0  0  0  0  0  0
   -0.1410   -0.3480   -0.8950 O   0  0  0  0  0  0  0  0  0  0  0  0
    0.4570   -0.6850    0.3070 C   0  0  1  0  0  0  0  0  0  0  0  0
    1.3770   -1.8800    0.1680 C   0  0  0  0  0  0  0  0  0  0  0  0
    2.4040   -1.6730   -0.7270 O   0  0  0  0  0  0  0  0  0  0  0  0
    1.1990    0.4810    0.8160 C   0  0  0  0  0  0  0  0  0  0  0  0
    1.8300    0.4220    1.9030 O   0  0  0  0  0  0  0  0  0  0  0  0
    1.2210    1.6550    0.1250 O   0  0  0  0  0  0  0  0  0  0  0  0
    1.8650    2.7600    0.5080 O   0  0  0  0  0  0  0  0  0  0  0  0
  1  2  1  0
  2  3  2  0
  2  4  1  0
  4  5  1  6
  4  6  1  0
  6  7  1  0
  7  8  1  6
  7 10  1  0
  8  9  1  0
 10 11  2  0
 10 12  1  0
 12 13  1  0
M  END
