
     RDKit          3D

 12 11  0  0  0  0  0  0  0  0999 V2000
    4.5330   -0.0590   -0.5090 O   0  0  0  0  0  0  0  0  0  0  0  0
    3.4040   -0.6990   -0.0570 C   0  0  0  0  0  0  0  0  0  0  0  0
    2.1920    0.2350   -0.0730 C   0  0  0  0  0  0  0  0  0  0  0  0
    1.1330   -0.5070    0.3940 O   0  0  0  0  0  0  0  0  0  0  0  0
   -0.0630    0.2730    0.4220 C   0  0  2  0  0  0  0  0  0  0  0  0
   -0.3070    0.6840   -0.8780 O   0  0  0  0  0  0  0  0  0  0  0  0
    0.2330    1.4040    1.2070 O   0  0  0  0  0  0  0  0  0  0  0  0
   -1.0310   -0.5700    1.0090 N   0  0  0  0  0  0  0  0  0  0  0  0
   -2.3280   -0.1100    1.2670 C   0  0  2  0  0  0  0  0  0  0  0  0
   -3.0510   -1.1820    1.8500 O   0  0  0  0  0  0  0  0  0  0  0  0
   -3.0520    0.2370   -0.0090 C   0  0  0  0  0  0  0  0  0  0  0  0
   -3.1210   -0.8980   -0.8060 O   0  0  0  0  0  0  0  0  0  0  0  0
  1  2  1  0
  2  3  1  0
  3  4  1  0
  4  5  1  0
  5  6  1  6
  5  7  1  0
  5  8  1  0
  8  9  1  0
  9 10  1  6
  9 11  1  0
 11 12  1  0
M  END
