
     RDKit          3D

 12 11  0  0  0  0  0  0  0  0999 V2000
    3.6280    0.8120    0.4700 O   0  0  0  0  0  0  0  0  0  0  0  0
    2.8050    0.5860   -0.4800 C   0  0  0  0  0  0  0  0  0  0  0  0
    3.3420    0.2850   -1.7190 O   0  0  0  0  0  0  0  0  0  0  0  0
    1.3570    0.6680   -0.1690 C   0  0  2  0  0  0  0  0  0  0  0  0
    1.2350    0.6370    1.2290 O   0  0  0  0  0  0  0  0  0  0  0  0
    0.5670   -0.2640   -0.8550 N   0  0  0  0  0  0  0  0  0  0  0  0
   -0.3860   -0.9410   -0.0360 C   0  0  2  0  0  0  0  0  0  0  0  0
   -0.9330   -1.9930   -0.7720 O   0  0  0  0  0  0  0  0  0  0  0  0
   -1.4360   -0.0600    0.5620 C   0  0  2  0  0  0  0  0  0  0  0  0
   -2.3290   -0.8900    1.2810 O   0  0  0  0  0  0  0  0  0  0  0  0
   -2.1850    0.7760   -0.4380 C   0  0  0  0  0  0  0  0  0  0  0  0
   -3.1190    1.5720    0.2330 O   0  0  0  0  0  0  0  0  0  0  0  0
  1  2  2  0
  2  3  1  0
  2  4  1  0
  4  5  1  1
  4  6  1  0
  6  7  1  0
  7  8  1  6
  7  9  1  0
  9 10  1  6
  9 11  1  0
 11 12  1  0
M  END
