
     RDKit          3D

 27 29  0  0  0  0  0  0  0  0999 V2000
   -5.9450   -2.7460    2.6450 N   0  0  0  0  0  0  0  0  0  0  0  0
   -5.4240   -1.4430    2.3870 C   0  0  0  0  0  0  0  0  0  0  0  0
   -5.8350   -0.3760    3.1570 C   0  0  0  0  0  0  0  0  0  0  0  0
   -5.3200    0.8630    2.8880 C   0  0  0  0  0  0  0  0  0  0  0  0
   -4.3990    1.0910    1.8690 C   0  0  0  0  0  0  0  0  0  0  0  0
   -4.0020    0.0190    1.1130 C   0  0  0  0  0  0  0  0  0  0  0  0
   -3.0440    0.2060    0.0390 C   0  0  0  0  0  0  0  0  0  0  0  0
   -3.0530   -0.5670   -1.1000 C   0  0  0  0  0  0  0  0  0  0  0  0
   -2.1420   -0.3890   -2.1230 C   0  0  0  0  0  0  0  0  0  0  0  0
   -1.1620    0.6140   -2.0130 C   0  0  0  0  0  0  0  0  0  0  0  0
   -0.2070    0.7900   -3.0920 C   0  0  0  0  0  0  0  0  0  0  0  0
    0.7560    1.6630   -3.1680 C   0  0  0  0  0  0  0  0  0  0  0  0
    1.1060    2.6810   -2.1770 C   0  0  0  0  0  0  0  0  0  0  0  0
    2.4670    2.4560   -1.7190 N   0  0  0  0  0  0  0  0  0  0  0  0
    2.7940    1.1960   -1.0810 C   0  0  0  0  0  0  0  0  0  0  0  0
    1.9090    0.3330   -0.9370 O   0  0  0  0  0  0  0  0  0  0  0  0
    4.0990    0.9420   -0.6250 N   0  0  0  0  0  0  0  0  0  0  0  0
    4.5730   -0.2250    0.0120 C   0  0  0  0  0  0  0  0  0  0  0  0
    3.8010   -1.3290    0.2920 C   0  0  0  0  0  0  0  0  0  0  0  0
    4.3610   -2.4460    0.9310 C   0  0  0  0  0  0  0  0  0  0  0  0
    5.6510   -2.4810    1.2860 N   0  0  0  0  0  0  0  0  0  0  0  0
    6.4080   -1.3990    1.0120 C   0  0  0  0  0  0  0  0  0  0  0  0
    5.9190   -0.2850    0.3930 C   0  0  0  0  0  0  0  0  0  0  0  0
    6.7450    0.8130    0.1300 O   0  0  0  0  0  0  0  0  0  0  0  0
   -1.2000    1.3330   -0.8870 N   0  0  0  0  0  0  0  0  0  0  0  0
   -2.0720    1.1770    0.1130 C   0  0  0  0  0  0  0  0  0  0  0  0
   -4.5160   -1.2540    1.3720 C   0  0  0  0  0  0  0  0  0  0  0  0
  1  2  1  0
  2  3  2  0
  2 27  1  0
  3  4  1  0
  4  5  2  0
  5  6  1  0
  6  7  1  0
  6 27  2  0
  7  8  2  0
  7 26  1  0
  8  9  1  0
  9 10  2  0
 10 11  1  0
 10 25  1  0
 11 12  2  3
 12 13  1  0
 13 14  1  0
 14 15  1  0
 15 16  2  0
 15 17  1  0
 17 18  1  0
 18 19  2  0
 18 23  1  0
 19 20  1  0
 20 21  2  0
 21 22  1  0
 22 23  2  0
 23 24  1  0
 25 26  2  0
M  CHG  1  21   1
M  END
