
     RDKit          3D

 25 28  0  0  0  0  0  0  0  0999 V2000
   -2.5510   -2.0280   -2.1400 C   0  0  0  0  0  0  0  0  0  0  0  0
   -2.3710   -2.4820   -0.8030 O   0  0  0  0  0  0  0  0  0  0  0  0
   -2.1730   -1.5740    0.2400 C   0  0  0  0  0  0  0  0  0  0  0  0
   -1.0310   -0.9570    0.4950 C   0  0  0  0  0  0  0  0  0  0  0  0
    0.2670   -1.0680   -0.2260 C   0  0  0  0  0  0  0  0  0  0  0  0
    0.6860    0.2150   -0.7580 N   0  0  0  0  0  0  0  0  0  0  0  0
    1.9440    0.5810   -0.1780 C   0  0  2  0  0  0  0  0  0  0  0  0
    2.0010    2.0270    0.2650 C   0  0  0  0  0  0  0  0  0  0  0  0
    3.5150    2.1380    0.5150 C   0  0  0  0  0  0  0  0  0  0  0  0
    4.0070    1.4350   -0.7110 C   0  0  0  0  0  0  0  0  0  0  0  0
    5.1720    1.5680   -1.4370 C   0  0  0  0  0  0  0  0  0  0  0  0
    5.3980    0.7860   -2.5630 C   0  0  0  0  0  0  0  0  0  0  0  0
    4.4700   -0.1430   -2.9940 C   0  0  0  0  0  0  0  0  0  0  0  0
    3.3140   -0.2610   -2.2570 C   0  0  0  0  0  0  0  0  0  0  0  0
    3.0720    0.5130   -1.1280 C   0  0  0  0  0  0  0  0  0  0  0  0
   -1.2630   -0.0990    1.6670 C   0  0  0  0  0  0  0  0  0  0  0  0
   -2.6450   -0.2870    2.0540 N   0  0  0  0  0  0  0  0  0  0  0  0
   -3.1950   -1.1660    1.2070 C   0  0  0  0  0  0  0  0  0  0  0  0
   -4.5270   -1.5010    1.3880 C   0  0  0  0  0  0  0  0  0  0  0  0
   -5.2730   -0.9410    2.4190 C   0  0  0  0  0  0  0  0  0  0  0  0
   -4.6810   -0.0460    3.2680 C   0  0  0  0  0  0  0  0  0  0  0  0
   -5.4000    0.5630    4.3490 C   0  0  0  0  0  0  0  0  0  0  0  0
   -5.9840    1.0440    5.2420 N   0  0  0  0  0  0  0  0  0  0  0  0
   -3.3510    0.2510    3.0410 C   0  0  0  0  0  0  0  0  0  0  0  0
   -2.8020    1.0790    3.8250 O   0  0  0  0  0  0  0  0  0  0  0  0
  1  2  1  0
  2  3  1  0
  3  4  2  0
  3 18  1  0
  4  5  1  0
  4 16  1  0
  5  6  1  0
  7  6  1  6
  7  8  1  0
  7 15  1  0
  8  9  1  0
  9 10  1  0
 10 11  2  0
 10 15  1  0
 11 12  1  0
 12 13  2  0
 13 14  1  0
 14 15  2  0
 16 17  1  0
 17 18  1  0
 17 24  1  0
 18 19  2  0
 19 20  1  0
 20 21  2  0
 21 22  1  0
 21 24  1  0
 22 23  3  0
 24 25  2  0
M  CHG  1   6   1
M  END
