
     RDKit          3D

 26 29  0  0  0  0  0  0  0  0999 V2000
    6.2760    1.2240    0.4030 C   0  0  0  0  0  0  0  0  0  0  0  0
    5.5010    0.1070   -0.2060 C   0  0  0  0  0  0  0  0  0  0  0  0
    6.1950   -0.8430   -0.8980 C   0  0  0  0  0  0  0  0  0  0  0  0
    5.5740   -1.9100   -1.4950 C   0  0  0  0  0  0  0  0  0  0  0  0
    4.2240   -1.9980   -1.3780 C   0  0  0  0  0  0  0  0  0  0  0  0
    3.5060   -1.0250   -0.6670 C   0  0  0  0  0  0  0  0  0  0  0  0
    4.1090    0.0370   -0.0710 C   0  0  0  0  0  0  0  0  0  0  0  0
    3.4140    1.0880    0.6930 C   0  0  0  0  0  0  0  0  0  0  0  0
    1.9550    0.9420    0.7440 C   0  0  0  0  0  0  0  0  0  0  0  0
    1.2420    1.8250    1.3590 O   0  0  0  0  0  0  0  0  0  0  0  0
    1.2810   -0.1460    0.1390 N   0  0  0  0  0  0  0  0  0  0  0  0
   -0.1430   -0.2750    0.1980 C   0  0  0  0  0  0  0  0  0  0  0  0
   -0.7820   -0.5160   -1.0120 C   0  0  0  0  0  0  0  0  0  0  0  0
   -2.1530   -0.6500   -1.0630 C   0  0  0  0  0  0  0  0  0  0  0  0
   -2.9160   -0.5440    0.1070 C   0  0  0  0  0  0  0  0  0  0  0  0
   -4.4070   -0.7000    0.0330 C   0  0  1  0  0  0  0  0  0  0  0  0
   -5.0320    0.0470    1.2090 C   0  0  0  0  0  0  0  0  0  0  0  0
   -6.3240    0.7270    0.7400 C   0  0  0  0  0  0  0  0  0  0  0  0
   -5.9260    1.7330   -0.2280 N   0  0  0  0  0  0  0  0  0  0  0  0
   -5.1640    1.3190   -1.1840 C   0  0  0  0  0  0  0  0  0  0  0  0
   -4.7890   -0.0500   -1.2080 N   0  0  0  0  0  0  0  0  0  0  0  0
   -2.2680   -0.3070    1.2890 C   0  0  0  0  0  0  0  0  0  0  0  0
   -0.8690   -0.1690    1.3490 C   0  0  0  0  0  0  0  0  0  0  0  0
   -0.2260    0.0600    2.5130 F   0  0  0  0  0  0  0  0  0  0  0  0
    2.0540   -1.1260   -0.5640 C   0  0  0  0  0  0  0  0  0  0  0  0
    1.4760   -2.1070   -1.1140 O   0  0  0  0  0  0  0  0  0  0  0  0
  1  2  1  0
  2  3  2  0
  2  7  1  0
  3  4  1  0
  4  5  2  0
  5  6  1  0
  6  7  2  0
  6 25  1  0
  7  8  1  0
  8  9  1  0
  9 10  2  0
  9 11  1  0
 11 12  1  0
 11 25  1  0
 12 13  2  0
 12 23  1  0
 13 14  1  0
 14 15  2  0
 16 15  1  1
 15 22  1  0
 16 17  1  0
 16 21  1  0
 17 18  1  0
 18 19  1  0
 19 20  2  0
 20 21  1  0
 22 23  2  0
 23 24  1  0
 25 26  2  0
M  CHG  1  19   1
M  END
