
     RDKit          3D

 27 29  0  0  0  0  0  0  0  0999 V2000
    1.0550    1.4120   -0.5680 O   0  0  0  0  0  0  0  0  0  0  0  0
    0.5710    1.4960   -1.7010 C   0  0  0  0  0  0  0  0  0  0  0  0
   -0.8170    1.2550   -2.0260 C   0  0  0  0  0  0  0  0  0  0  0  0
   -1.7670    0.8910   -0.9820 C   0  0  0  0  0  0  0  0  0  0  0  0
   -1.6020    0.7290    0.2940 C   0  0  0  0  0  0  0  0  0  0  0  0
   -2.5550    0.3770    1.2550 N   0  0  0  0  0  0  0  0  0  0  0  0
   -3.9310    0.1060    1.0830 C   0  0  0  0  0  0  0  0  0  0  0  0
   -4.4060    0.1760   -0.0490 O   0  0  0  0  0  0  0  0  0  0  0  0
   -4.7890   -0.2410    2.1520 N   0  0  0  0  0  0  0  0  0  0  0  0
   -6.1640   -0.5270    2.0630 C   0  0  0  0  0  0  0  0  0  0  0  0
   -6.9310   -0.6040    0.9460 C   0  0  0  0  0  0  0  0  0  0  0  0
   -8.3060   -0.8910    0.9620 C   0  0  0  0  0  0  0  0  0  0  0  0
   -8.9200   -1.1060    2.1540 C   0  0  0  0  0  0  0  0  0  0  0  0
   -8.1890   -1.0400    3.3190 C   0  0  0  0  0  0  0  0  0  0  0  0
   -6.8440   -0.7570    3.2740 C   0  0  0  0  0  0  0  0  0  0  0  0
    1.4410    1.8580   -2.7780 N   0  0  0  0  0  0  0  0  0  0  0  0
    2.8280    2.1030   -2.4820 C   0  0  0  0  0  0  0  0  0  0  0  0
    3.4070    0.8620   -1.9190 C   0  0  0  0  0  0  0  0  0  0  0  0
    2.8610   -0.3900   -1.8260 C   0  0  0  0  0  0  0  0  0  0  0  0
    3.7910   -1.1780   -1.2290 N   0  0  0  0  0  0  0  0  0  0  0  0
    4.8900   -0.4630   -0.9510 C   0  0  0  0  0  0  0  0  0  0  0  0
    6.1230   -0.9590   -0.3030 C   0  0  0  0  0  0  0  0  0  0  0  0
    7.2100   -0.2870   -0.0170 C   0  0  0  0  0  0  0  0  0  0  0  0
    8.1900   -1.1850    0.6280 C   0  0  0  0  0  0  0  0  0  0  0  0
    7.5070   -2.4810    0.6730 C   0  0  0  0  0  0  0  0  0  0  0  0
    6.3140   -2.3250    0.1300 C   0  0  0  0  0  0  0  0  0  0  0  0
    4.6420    0.7840   -1.3790 N   0  0  0  0  0  0  0  0  0  0  0  0
  1  2  2  0
  2  3  1  0
  2 16  1  0
  3  4  1  0
  4  5  2  3
  5  6  1  0
  6  7  1  0
  7  8  2  0
  7  9  1  0
  9 10  1  0
 10 11  2  0
 10 15  1  0
 11 12  1  0
 12 13  2  0
 13 14  1  0
 14 15  2  0
 16 17  1  0
 17 18  1  0
 18 19  2  0
 18 27  1  0
 19 20  1  0
 20 21  2  0
 21 22  1  0
 21 27  1  0
 22 23  2  0
 22 26  1  0
 23 24  1  0
 24 25  1  0
 25 26  2  0
M  CHG  1  20   1
M  END
