
     RDKit          3D

 27 29  0  0  0  0  0  0  0  0999 V2000
   -7.4840    1.2810   -2.4290 C   0  0  0  0  0  0  0  0  0  0  0  0
   -6.4740    0.5310   -3.0010 O   0  0  0  0  0  0  0  0  0  0  0  0
   -5.2320    0.6710   -2.4600 C   0  0  0  0  0  0  0  0  0  0  0  0
   -5.1830    0.2730   -0.9680 C   0  0  1  0  0  0  0  0  0  0  0  0
   -5.5980   -1.1550   -0.8560 C   0  0  0  0  0  0  0  0  0  0  0  0
   -5.6510   -1.6920    0.5190 C   0  0  0  0  0  0  0  0  0  0  0  0
   -4.4620   -1.7120    1.2900 N   0  0  0  0  0  0  0  0  0  0  0  0
   -3.7490    0.4070   -0.5450 C   0  0  0  0  0  0  0  0  0  0  0  0
   -3.2100    1.0780    0.4800 N   0  0  0  0  0  0  0  0  0  0  0  0
   -1.8610    0.9290    0.4420 C   0  0  0  0  0  0  0  0  0  0  0  0
   -0.8200    1.3770    1.2140 C   0  0  0  0  0  0  0  0  0  0  0  0
    0.5180    1.0510    0.9230 C   0  0  0  0  0  0  0  0  0  0  0  0
    0.8370    0.2690   -0.1490 C   0  0  0  0  0  0  0  0  0  0  0  0
    2.1540   -0.1120   -0.4940 N   0  0  0  0  0  0  0  0  0  0  0  0
    3.3260    0.0650    0.2660 C   0  0  0  0  0  0  0  0  0  0  0  0
    3.2290    0.6100    1.3670 O   0  0  0  0  0  0  0  0  0  0  0  0
    4.5790   -0.3930   -0.2690 N   0  0  0  0  0  0  0  0  0  0  0  0
    5.7980   -0.2660    0.4160 C   0  0  0  0  0  0  0  0  0  0  0  0
    5.9250    0.0210    1.7420 C   0  0  0  0  0  0  0  0  0  0  0  0
    7.1700    0.1520    2.3530 C   0  0  0  0  0  0  0  0  0  0  0  0
    8.3080   -0.0110    1.6120 C   0  0  0  0  0  0  0  0  0  0  0  0
    9.6190    0.1340    2.2930 C   0  0  0  0  0  0  0  0  0  0  0  0
    8.2400   -0.3070    0.2490 C   0  0  0  0  0  0  0  0  0  0  0  0
    6.9890   -0.4220   -0.2930 C   0  0  0  0  0  0  0  0  0  0  0  0
   -0.2420   -0.1800   -0.9280 C   0  0  0  0  0  0  0  0  0  0  0  0
   -1.5490    0.1390   -0.6420 C   0  0  0  0  0  0  0  0  0  0  0  0
   -2.7380   -0.1610   -1.2220 N   0  0  0  0  0  0  0  0  0  0  0  0
  1  2  1  0
  2  3  1  0
  4  3  1  6
  4  5  1  0
  4  8  1  0
  5  6  1  0
  6  7  1  0
  8  9  2  0
  8 27  1  0
  9 10  1  0
 10 11  2  0
 10 26  1  0
 11 12  1  0
 12 13  2  0
 13 14  1  0
 13 25  1  0
 14 15  1  0
 15 16  2  0
 15 17  1  0
 17 18  1  0
 18 19  2  0
 18 24  1  0
 19 20  1  0
 20 21  2  0
 21 22  1  0
 21 23  1  0
 23 24  2  0
 25 26  2  0
 26 27  1  0
M  CHG  1   7   1
M  END
