
     RDKit          3D

 27 29  0  0  0  0  0  0  0  0999 V2000
    6.0830   -1.7570    1.1840 C   0  0  0  0  0  0  0  0  0  0  0  0
    6.0070   -1.3720   -0.2700 C   0  0  0  0  0  0  0  0  0  0  0  0
    4.5510   -1.1230   -0.6630 C   0  0  0  0  0  0  0  0  0  0  0  0
    4.0610   -0.0070    0.2130 C   0  0  0  0  0  0  0  0  0  0  0  0
    2.6740    0.3680   -0.0360 N   0  0  0  0  0  0  0  0  0  0  0  0
    1.6190   -0.5220    0.1310 C   0  0  0  0  0  0  0  0  0  0  0  0
    1.9410   -1.7060    0.4900 O   0  0  0  0  0  0  0  0  0  0  0  0
    0.2170   -0.2630   -0.0680 C   0  0  0  0  0  0  0  0  0  0  0  0
   -0.4580    0.8970   -0.2250 C   0  0  0  0  0  0  0  0  0  0  0  0
   -0.0940    2.3070   -0.0690 C   0  0  0  0  0  0  0  0  0  0  0  0
    0.8510    2.9220    0.6960 C   0  0  0  0  0  0  0  0  0  0  0  0
    0.7930    4.2930    0.5030 C   0  0  0  0  0  0  0  0  0  0  0  0
    1.6550    5.3160    1.1520 C   0  0  0  0  0  0  0  0  0  0  0  0
   -0.2240    4.4650   -0.4060 C   0  0  0  0  0  0  0  0  0  0  0  0
   -0.6590    5.8140   -0.9280 C   0  0  0  0  0  0  0  0  0  0  0  0
   -0.6990    3.3100   -0.7020 O   0  0  0  0  0  0  0  0  0  0  0  0
   -1.7650    0.5530   -0.3750 N   0  0  0  0  0  0  0  0  0  0  0  0
   -1.9550   -0.7470   -0.3150 N   0  0  0  0  0  0  0  0  0  0  0  0
   -3.2550   -1.3820   -0.4420 C   0  0  0  0  0  0  0  0  0  0  0  0
   -3.4600   -2.6660   -0.3850 C   0  0  0  0  0  0  0  0  0  0  0  0
   -4.7910   -3.3160   -0.5150 C   0  0  1  0  0  0  0  0  0  0  0  0
   -4.9700   -4.1050    0.7090 N   0  0  0  0  0  0  0  0  0  0  0  0
   -5.9350   -2.4120   -0.7230 C   0  0  0  0  0  0  0  0  0  0  0  0
   -5.6310   -0.9870   -0.7770 C   0  0  0  0  0  0  0  0  0  0  0  0
   -4.4250   -0.5180   -0.6510 C   0  0  0  0  0  0  0  0  0  0  0  0
   -0.7600   -1.2960   -0.1240 C   0  0  0  0  0  0  0  0  0  0  0  0
   -0.4620   -2.6840    0.0060 N   0  0  0  0  0  0  0  0  0  0  0  0
  1  2  1  0
  2  3  1  0
  3  4  1  0
  4  5  1  0
  5  6  1  0
  6  7  2  0
  6  8  1  0
  8  9  1  0
  8 26  2  0
  9 10  1  0
  9 17  2  0
 10 11  2  0
 10 16  1  0
 11 12  1  0
 12 13  1  0
 12 14  2  0
 14 15  1  0
 14 16  1  0
 17 18  1  0
 18 19  1  0
 18 26  1  0
 19 20  2  0
 19 25  1  0
 20 21  1  0
 21 22  1  1
 21 23  1  0
 23 24  1  0
 24 25  2  0
 26 27  1  0
M  CHG  1  22   1
M  END
