
     RDKit          3D

 27 29  0  0  0  0  0  0  0  0999 V2000
    8.1230    2.1020   -0.9940 C   0  0  0  0  0  0  0  0  0  0  0  0
    7.1970    1.0640   -0.4400 C   0  0  0  0  0  0  0  0  0  0  0  0
    7.6600   -0.0570    0.2240 C   0  0  0  0  0  0  0  0  0  0  0  0
    6.8200   -1.0220    0.7400 C   0  0  0  0  0  0  0  0  0  0  0  0
    5.4530   -0.8730    0.5940 C   0  0  0  0  0  0  0  0  0  0  0  0
    4.5560   -1.7940    1.0820 C   0  0  0  0  0  0  0  0  0  0  0  0
    3.2040   -1.5950    0.9070 C   0  0  0  0  0  0  0  0  0  0  0  0
    2.7110   -0.4830    0.2470 C   0  0  0  0  0  0  0  0  0  0  0  0
    1.3290   -0.2410    0.0460 N   0  0  0  0  0  0  0  0  0  0  0  0
    0.3950   -1.2190    0.5660 C   0  0  0  0  0  0  0  0  0  0  0  0
   -1.0030   -0.8530    0.2930 C   0  0  0  0  0  0  0  0  0  0  0  0
   -1.6540   -1.2510   -0.8540 C   0  0  0  0  0  0  0  0  0  0  0  0
   -2.9650   -0.8790   -1.0580 C   0  0  0  0  0  0  0  0  0  0  0  0
   -3.6610   -1.3120   -2.2950 C   0  0  0  0  0  0  0  0  0  0  0  0
   -3.6850   -0.1010   -0.1400 C   0  0  0  0  0  0  0  0  0  0  0  0
   -5.0110    0.2390   -0.4500 N   0  0  0  0  0  0  0  0  0  0  0  0
   -5.8700    0.9190    0.4730 C   0  0  2  0  0  0  0  0  0  0  0  0
   -6.1740   -0.0000    1.6370 C   0  0  0  0  0  0  0  0  0  0  0  0
   -7.1440    1.3140   -0.2200 C   0  0  0  0  0  0  0  0  0  0  0  0
   -8.1070    2.0030    0.5690 N   0  0  0  0  0  0  0  0  0  0  0  0
   -7.2820    1.0240   -1.4170 O   0  0  0  0  0  0  0  0  0  0  0  0
   -2.9880    0.2690    0.9860 C   0  0  0  0  0  0  0  0  0  0  0  0
   -3.5610    0.9740    1.8650 O   0  0  0  0  0  0  0  0  0  0  0  0
   -1.6890   -0.1130    1.1630 N   0  0  0  0  0  0  0  0  0  0  0  0
    3.6270    0.4270   -0.2340 C   0  0  0  0  0  0  0  0  0  0  0  0
    5.0050    0.2500   -0.0710 C   0  0  0  0  0  0  0  0  0  0  0  0
    5.8590    1.1740   -0.5630 N   0  0  0  0  0  0  0  0  0  0  0  0
  1  2  1  0
  2  3  2  0
  2 27  1  0
  3  4  1  0
  4  5  2  0
  5  6  1  0
  5 26  1  0
  6  7  2  0
  7  8  1  0
  8  9  1  0
  8 25  2  0
  9 10  1  0
 10 11  1  0
 11 12  2  0
 11 24  1  0
 12 13  1  0
 13 14  1  0
 13 15  2  0
 15 16  1  0
 15 22  1  0
 16 17  1  0
 17 18  1  1
 17 19  1  0
 19 20  1  0
 19 21  2  0
 22 23  2  0
 22 24  1  0
 25 26  1  0
 26 27  2  0
M  CHG  1  27   1
M  END
