
     RDKit          3D

 10 10  0  0  0  0  0  0  0  0999 V2000
    2.6040    0.6620    1.0160 N   0  0  0  0  0  0  0  0  0  0  0  0
    1.8760   -0.3250    0.3030 C   0  0  0  0  0  0  0  0  0  0  0  0
    2.4900   -1.5540    0.0040 O   0  0  0  0  0  0  0  0  0  0  0  0
    0.6450   -0.0610   -0.0590 C   0  0  0  0  0  0  0  0  0  0  0  0
   -0.0850   -1.1210   -0.8040 C   0  0  0  0  0  0  0  0  0  0  0  0
   -1.5390   -0.8210   -0.9810 C   0  0  0  0  0  0  0  0  0  0  0  0
   -2.0830    0.0780    0.1220 C   0  0  0  0  0  0  0  0  0  0  0  0
   -1.3800    1.4270    0.0870 C   0  0  0  0  0  0  0  0  0  0  0  0
    0.0560    1.2130    0.2700 C   0  0  0  0  0  0  0  0  0  0  0  0
    0.8120    2.1140    0.7110 O   0  0  0  0  0  0  0  0  0  0  0  0
  1  2  1  0
  2  3  1  0
  2  4  2  3
  4  5  1  0
  4  9  1  0
  5  6  1  0
  6  7  1  0
  7  8  1  0
  8  9  1  0
  9 10  2  0
M  END
