
     RDKit          3D

 10  9  0  0  0  0  0  0  0  0999 V2000
   -2.1070    1.4550   -1.0730 C   0  0  0  0  0  0  0  0  0  0  0  0
   -2.5860    0.1750   -0.5030 C   0  0  0  0  0  0  0  0  0  0  0  0
   -1.7530   -0.7780   -0.1460 C   0  0  0  0  0  0  0  0  0  0  0  0
   -2.2160   -2.0630    0.4250 C   0  0  0  0  0  0  0  0  0  0  0  0
   -0.3710   -0.5930   -0.3030 N   0  0  0  0  0  0  0  0  0  0  0  0
    0.4090    0.0580    0.7160 C   0  0  0  0  0  0  0  0  0  0  0  0
    1.8520    0.1400    0.3260 C   0  0  0  0  0  0  0  0  0  0  0  0
    2.2600   -0.3230   -0.7700 O   0  0  0  0  0  0  0  0  0  0  0  0
    2.8040    0.7260    1.1450 O   0  0  0  0  0  0  0  0  0  0  0  0
    4.1820    0.7990    0.7630 C   0  0  0  0  0  0  0  0  0  0  0  0
  1  2  1  0
  2  3  2  3
  3  4  1  0
  3  5  1  0
  5  6  1  0
  6  7  1  0
  7  8  2  0
  7  9  1  0
  9 10  1  0
M  END
