
     RDKit          3D

 10 10  0  0  0  0  0  0  0  0999 V2000
    3.6700    0.2990    0.8180 C   0  0  0  0  0  0  0  0  0  0  0  0
    2.6760    0.0730   -0.1950 O   0  0  0  0  0  0  0  0  0  0  0  0
    1.3230    0.0600    0.0990 C   0  0  0  0  0  0  0  0  0  0  0  0
    0.9830    0.2530    1.2920 O   0  0  0  0  0  0  0  0  0  0  0  0
    0.3190   -0.1730   -0.9500 C   0  0  0  0  0  0  0  0  0  0  0  0
   -1.0660   -0.1480   -0.4300 C   0  0  0  0  0  0  0  0  0  0  0  0
   -1.9010    0.9560   -0.3270 C   0  0  0  0  0  0  0  0  0  0  0  0
   -3.1210    0.5930    0.2060 C   0  0  0  0  0  0  0  0  0  0  0  0
   -3.0140   -0.7720    0.4300 C   0  0  0  0  0  0  0  0  0  0  0  0
   -1.7920   -1.1850    0.0470 N   0  0  0  0  0  0  0  0  0  0  0  0
  1  2  1  0
  2  3  1  0
  3  4  2  0
  3  5  1  0
  5  6  1  0
  6  7  2  0
  6 10  1  0
  7  8  1  0
  8  9  2  0
  9 10  1  0
M  END
