
     RDKit          3D

 10 10  0  0  0  0  0  0  0  0999 V2000
    2.8880    1.3220   -0.6520 O   0  0  0  0  0  0  0  0  0  0  0  0
    2.9120    0.2620    0.2500 C   0  0  0  0  0  0  0  0  0  0  0  0
    1.5350   -0.3530    0.4080 C   0  0  0  0  0  0  0  0  0  0  0  0
    1.0890   -0.8280   -0.8140 O   0  0  0  0  0  0  0  0  0  0  0  0
   -0.1580   -1.4010   -0.7720 C   0  0  0  0  0  0  0  0  0  0  0  0
   -1.2310   -0.4490   -0.3360 C   0  0  0  0  0  0  0  0  0  0  0  0
   -2.4430   -0.8140    0.2290 C   0  0  0  0  0  0  0  0  0  0  0  0
   -3.1790    0.3170    0.4960 C   0  0  0  0  0  0  0  0  0  0  0  0
   -2.3940    1.3680    0.0850 C   0  0  0  0  0  0  0  0  0  0  0  0
   -1.2270    0.8910   -0.4130 N   0  0  0  0  0  0  0  0  0  0  0  0
  1  2  1  0
  2  3  1  0
  3  4  1  0
  4  5  1  0
  5  6  1  0
  6  7  2  0
  6 10  1  0
  7  8  1  0
  8  9  2  0
  9 10  1  0
M  END
