
     RDKit          3D

 10 10  0  0  0  0  0  0  0  0999 V2000
    0.9630    2.8910   -0.9680 O   0  0  0  0  0  0  0  0  0  0  0  0
    0.5780    1.8290   -0.4110 C   0  0  0  0  0  0  0  0  0  0  0  0
    1.7020    0.9100   -0.1740 C   0  0  0  0  0  0  0  0  0  0  0  0
    1.2650   -0.5220   -0.5110 C   0  0  1  0  0  0  0  0  0  0  0  0
    2.4610   -1.2160   -0.7760 O   0  0  0  0  0  0  0  0  0  0  0  0
    0.5260   -1.0830    0.6520 C   0  0  0  0  0  0  0  0  0  0  0  0
   -0.8780   -1.5230    0.3390 C   0  0  0  0  0  0  0  0  0  0  0  0
   -1.6850   -0.4540   -0.3520 C   0  0  0  0  0  0  0  0  0  0  0  0
   -1.7100    0.8250    0.4720 C   0  0  0  0  0  0  0  0  0  0  0  0
   -0.8130    1.7740   -0.1520 N   0  0  0  0  0  0  0  0  0  0  0  0
  1  2  2  0
  2  3  1  0
  2 10  1  0
  3  4  1  0
  4  5  1  1
  4  6  1  0
  6  7  1  0
  7  8  1  0
  8  9  1  0
  9 10  1  0
M  END
