
     RDKit          3D

 26 29  0  0  0  0  0  0  0  0999 V2000
   -2.8100    0.0870   -2.2310 N   0  0  0  0  0  0  0  0  0  0  0  0
   -1.7170   -0.2250   -1.3760 C   0  0  0  0  0  0  0  0  0  0  0  0
   -0.6730   -0.9180   -1.9500 N   0  0  0  0  0  0  0  0  0  0  0  0
    0.4060   -1.2690   -1.2570 C   0  0  0  0  0  0  0  0  0  0  0  0
    0.4270   -0.9050    0.0640 C   0  0  0  0  0  0  0  0  0  0  0  0
   -0.6020   -0.2090    0.6790 C   0  0  0  0  0  0  0  0  0  0  0  0
   -0.5280    0.0920    1.8810 O   0  0  0  0  0  0  0  0  0  0  0  0
   -1.7340    0.1560   -0.0640 C   0  0  0  0  0  0  0  0  0  0  0  0
   -2.8460    0.9000    0.5680 C   0  0  0  0  0  0  0  0  0  0  0  0
   -2.9350    1.2960    1.8220 C   0  0  0  0  0  0  0  0  0  0  0  0
   -4.2090    2.0190    2.0770 C   0  0  0  0  0  0  0  0  0  0  0  0
   -4.8680    1.9930    0.7760 C   0  0  0  0  0  0  0  0  0  0  0  0
   -4.0510    1.3380   -0.0720 C   0  0  0  0  0  0  0  0  0  0  0  0
    1.6520   -1.3020    0.8240 C   0  0  2  0  0  0  0  0  0  0  0  0
    2.7300   -0.3040    0.6630 C   0  0  0  0  0  0  0  0  0  0  0  0
    2.4900    1.0620    0.5750 C   0  0  0  0  0  0  0  0  0  0  0  0
    3.5090    1.9780    0.4100 C   0  0  0  0  0  0  0  0  0  0  0  0
    3.1860    3.6970    0.3010 Cl  0  0  0  0  0  0  0  0  0  0  0  0
    4.8110    1.5430    0.3270 C   0  0  0  0  0  0  0  0  0  0  0  0
    5.0480    0.2300    0.4110 N   0  0  0  0  0  0  0  0  0  0  0  0
    4.0420   -0.6740    0.5740 C   0  0  0  0  0  0  0  0  0  0  0  0
    4.5180   -2.3310    0.6740 Cl  0  0  0  0  0  0  0  0  0  0  0  0
    2.0500   -2.6430    0.4160 N   0  0  0  0  0  0  0  0  0  0  0  0
    2.0920   -3.0150   -0.9530 C   0  0  0  0  0  0  0  0  0  0  0  0
    2.5700   -4.0610   -1.3820 O   0  0  0  0  0  0  0  0  0  0  0  0
    1.5010   -2.0340   -1.9050 C   0  0  0  0  0  0  0  0  0  0  0  0
  1  2  1  0
  2  3  1  0
  2  8  2  0
  3  4  1  0
  4  5  2  0
  4 26  1  0
  5  6  1  0
  5 14  1  0
  6  7  2  0
  6  8  1  0
  8  9  1  0
  9 10  2  0
  9 13  1  0
 10 11  1  0
 11 12  1  0
 12 13  2  0
 14 15  1  6
 14 23  1  0
 15 16  2  0
 15 21  1  0
 16 17  1  0
 17 18  1  0
 17 19  2  0
 19 20  1  0
 20 21  2  0
 21 22  1  0
 23 24  1  0
 24 25  2  0
 24 26  1  0
M  END
