
     RDKit          3D

 26 29  0  0  0  0  0  0  0  0999 V2000
   -6.2470   -0.2490   -0.4340 C   0  0  0  0  0  0  0  0  0  0  0  0
   -4.9470    0.3120    0.1130 C   0  0  0  0  0  0  0  0  0  0  0  0
   -3.8030   -0.3110   -0.1060 C   0  0  0  0  0  0  0  0  0  0  0  0
   -3.7690   -1.5600   -0.8450 C   0  0  0  0  0  0  0  0  0  0  0  0
   -4.8210   -2.1370   -1.2180 O   0  0  0  0  0  0  0  0  0  0  0  0
   -2.4770   -2.1180   -1.1420 N   0  0  0  0  0  0  0  0  0  0  0  0
   -1.2950   -1.4580   -0.7260 C   0  0  0  0  0  0  0  0  0  0  0  0
   -0.0860   -2.0980   -1.0310 C   0  0  0  0  0  0  0  0  0  0  0  0
    1.0890   -1.5370   -0.6470 C   0  0  0  0  0  0  0  0  0  0  0  0
    2.6120   -2.3140   -1.0060 Cl  0  0  0  0  0  0  0  0  0  0  0  0
    1.0920   -0.3440    0.0330 C   0  0  0  0  0  0  0  0  0  0  0  0
    2.4240    0.1640    0.5330 C   0  0  0  0  0  0  0  0  0  0  0  0
    3.3420    0.3600   -0.5610 N   0  0  0  0  0  0  0  0  0  0  0  0
    4.7200    0.5320   -0.2640 C   0  0  0  0  0  0  0  0  0  0  0  0
    5.2990   -0.1320    0.7130 C   0  0  0  0  0  0  0  0  0  0  0  0
    6.7190    0.2450    0.7790 C   0  0  0  0  0  0  0  0  0  0  0  0
    6.8990    1.2300   -0.3250 C   0  0  0  0  0  0  0  0  0  0  0  0
    5.7070    1.3690   -0.9070 C   0  0  0  0  0  0  0  0  0  0  0  0
    5.4590    2.4280   -2.2770 Cl  0  0  0  0  0  0  0  0  0  0  0  0
   -0.0820    0.2710    0.3220 C   0  0  0  0  0  0  0  0  0  0  0  0
   -1.3240   -0.2500   -0.0350 C   0  0  0  0  0  0  0  0  0  0  0  0
   -2.5790    0.4330    0.2690 C   0  0  2  0  0  0  0  0  0  0  0  0
   -2.7180    1.0220    1.6050 C   0  0  0  0  0  0  0  0  0  0  0  0
   -1.8930    0.9790    2.5380 O   0  0  0  0  0  0  0  0  0  0  0  0
   -3.9680    1.7210    1.8220 N   0  0  0  0  0  0  0  0  0  0  0  0
   -5.0880    1.3720    1.0840 N   0  0  0  0  0  0  0  0  0  0  0  0
  1  2  1  0
  2  3  2  0
  2 26  1  0
  3  4  1  0
  3 22  1  0
  4  5  2  0
  4  6  1  0
  6  7  1  0
  7  8  2  0
  7 21  1  0
  8  9  1  0
  9 10  1  0
  9 11  2  0
 11 12  1  0
 11 20  1  0
 12 13  1  0
 13 14  1  0
 14 15  2  0
 14 18  1  0
 15 16  1  0
 16 17  1  0
 17 18  2  0
 18 19  1  0
 20 21  2  0
 21 22  1  0
 22 23  1  1
 23 24  2  0
 23 25  1  0
 25 26  1  0
M  END
