
     RDKit          3D

 26 29  0  0  0  0  0  0  0  0999 V2000
    2.6430    1.0910    2.2530 N   0  0  0  0  0  0  0  0  0  0  0  0
    1.7890    0.3470    1.4170 C   0  0  0  0  0  0  0  0  0  0  0  0
    2.1980   -0.8990    0.8970 N   0  0  0  0  0  0  0  0  0  0  0  0
    3.2590   -1.0120   -0.0610 C   0  0  0  0  0  0  0  0  0  0  0  0
    3.9340    0.0950   -0.5220 C   0  0  0  0  0  0  0  0  0  0  0  0
    4.9610   -0.0420   -1.4530 C   0  0  0  0  0  0  0  0  0  0  0  0
    5.8230    1.3580   -2.0440 Cl  0  0  0  0  0  0  0  0  0  0  0  0
    5.2910   -1.2980   -1.9040 C   0  0  0  0  0  0  0  0  0  0  0  0
    4.6190   -2.4110   -1.4460 C   0  0  0  0  0  0  0  0  0  0  0  0
    3.5940   -2.2650   -0.5160 C   0  0  0  0  0  0  0  0  0  0  0  0
    2.7400   -3.6890    0.0650 Cl  0  0  0  0  0  0  0  0  0  0  0  0
    0.5970    0.8140    1.1140 C   0  0  0  0  0  0  0  0  0  0  0  0
    0.1730    2.0780    1.6370 N   0  0  0  0  0  0  0  0  0  0  0  0
   -1.0980    2.5250    1.2850 N   0  0  0  0  0  0  0  0  0  0  0  0
   -1.9930    1.7930    0.4360 C   0  0  0  0  0  0  0  0  0  0  0  0
   -1.6510    0.6130   -0.0780 C   0  0  0  0  0  0  0  0  0  0  0  0
   -0.3400    0.1050    0.2580 C   0  0  0  0  0  0  0  0  0  0  0  0
    0.0100   -0.9830   -0.1990 O   0  0  0  0  0  0  0  0  0  0  0  0
   -2.4550   -0.2240   -0.9540 C   0  0  1  0  0  0  0  0  0  0  0  0
   -2.1250   -1.6670   -0.9960 C   0  0  0  0  0  0  0  0  0  0  0  0
   -3.2980   -2.2390   -1.5550 O   0  0  0  0  0  0  0  0  0  0  0  0
   -4.3520   -1.6340   -0.8870 C   0  0  0  0  0  0  0  0  0  0  0  0
   -3.9140   -0.2340   -0.6520 C   0  0  0  0  0  0  0  0  0  0  0  0
   -4.7660    0.6880   -0.2580 C   0  0  0  0  0  0  0  0  0  0  0  0
   -4.4190    2.0820   -0.0050 C   0  0  0  0  0  0  0  0  0  0  0  0
   -3.2220    2.5630    0.2950 C   0  0  0  0  0  0  0  0  0  0  0  0
  1  2  1  0
  2  3  1  0
  2 12  2  3
  3  4  1  0
  4  5  2  0
  4 10  1  0
  5  6  1  0
  6  7  1  0
  6  8  2  0
  8  9  1  0
  9 10  2  0
 10 11  1  0
 12 13  1  0
 12 17  1  0
 13 14  1  0
 14 15  1  0
 15 16  2  0
 15 26  1  0
 16 17  1  0
 16 19  1  0
 17 18  2  0
 19 20  1  1
 19 23  1  0
 20 21  1  0
 21 22  1  0
 22 23  1  0
 23 24  2  0
 24 25  1  0
 25 26  2  0
M  END
