
     RDKit          3D

 23 23  0  0  0  0  0  0  0  0999 V2000
    6.5470    2.8900    0.5370 C   0  0  0  0  0  0  0  0  0  0  0  0
    5.1120    2.5590    0.0680 C   0  0  0  0  0  0  0  0  0  0  0  0
    4.9500    1.2360    0.4530 O   0  0  0  0  0  0  0  0  0  0  0  0
    4.4540    0.1950   -0.7920 P   0  0  0  0  0  0  0  0  0  0  0  0
    2.7530   -0.0490   -1.1510 C   0  0  0  0  0  0  0  0  0  0  0  0
    2.1080    0.9040   -1.7900 O   0  0  0  0  0  0  0  0  0  0  0  0
    2.0490   -1.1860   -0.7710 N   0  0  0  0  0  0  0  0  0  0  0  0
    0.7030   -1.5150   -0.9430 C   0  0  0  0  0  0  0  0  0  0  0  0
   -0.2230   -0.4660   -0.3190 C   0  0  0  0  0  0  0  0  0  0  0  0
   -1.6320   -0.8410   -0.1620 C   0  0  1  0  0  0  0  0  0  0  0  0
   -2.5380   -1.1200   -1.1110 O   0  0  0  0  0  0  0  0  0  0  0  0
   -3.7080   -0.3110   -0.9610 C   0  0  2  0  0  0  0  0  0  0  0  0
   -3.1010    1.0600   -0.3560 C   0  0  0  0  0  0  0  0  0  0  0  0
   -3.9570    1.6490    0.6740 C   0  0  0  0  0  0  0  0  0  0  0  0
   -5.3750    1.7040    0.2410 C   0  0  0  0  0  0  0  0  0  0  0  0
   -5.8590    0.3000   -0.0270 C   0  0  0  0  0  0  0  0  0  0  0  0
   -4.7090   -0.6830   -0.0050 C   0  0  0  0  0  0  0  0  0  0  0  0
   -1.4600   -2.2830    0.4570 C   0  0  0  0  0  0  0  0  0  0  0  0
   -0.7790   -2.4040    1.5010 O   0  0  0  0  0  0  0  0  0  0  0  0
   -2.0260   -3.3850   -0.1320 O   0  0  0  0  0  0  0  0  0  0  0  0
    5.5130   -1.7430   -0.3880 P   0  0  0  0  0  0  0  0  0  0  0  0
    4.4180   -3.0580   -0.3690 O   0  0  0  0  0  0  0  0  0  0  0  0
    6.1470   -1.6380    1.2730 O   0  0  0  0  0  0  0  0  0  0  0  0
  1  2  1  0
  2  3  1  0
  3  4  1  0
  4  5  1  0
  4 21  1  0
  5  6  2  0
  5  7  1  0
  7  8  1  0
  8  9  1  0
 10  9  1  6
 10 11  1  0
 10 18  1  0
 12 11  1  1
 12 13  1  0
 12 17  1  0
 13 14  1  0
 14 15  1  0
 15 16  1  0
 16 17  1  0
 18 19  2  0
 18 20  1  0
 21 22  1  0
 21 23  1  0
M  END
