
     RDKit          3D

 24 24  0  0  0  0  0  0  0  0999 V2000
   -3.1670   -1.2970    2.7200 C   0  0  0  0  0  0  0  0  0  0  0  0
   -2.8160   -0.2450    1.7210 C   0  0  0  0  0  0  0  0  0  0  0  0
   -2.3510   -0.7990    0.4970 O   0  0  0  0  0  0  0  0  0  0  0  0
   -2.8570    0.5440   -0.6720 P   0  0  0  0  0  0  0  0  0  0  0  0
   -1.7950    0.4280   -2.1610 C   0  0  0  0  0  0  0  0  0  0  0  0
   -0.5180    0.3280   -1.8570 O   0  0  0  0  0  0  0  0  0  0  0  0
    0.7370    0.2270   -1.6210 C   0  0  0  0  0  0  0  0  0  0  0  0
    1.7610    0.0260   -2.5800 C   0  0  0  0  0  0  0  0  0  0  0  0
    3.0490   -0.0890   -2.1710 C   0  0  0  0  0  0  0  0  0  0  0  0
    4.0930    0.0000   -3.1990 C   0  0  0  0  0  0  0  0  0  0  0  0
    3.7880    0.1110   -4.4390 O   0  0  0  0  0  0  0  0  0  0  0  0
    5.4460   -0.0220   -2.9780 O   0  0  0  0  0  0  0  0  0  0  0  0
    3.3950   -0.0220   -0.8540 N   0  0  0  0  0  0  0  0  0  0  0  0
    2.4920    0.1720    0.0700 C   0  0  0  0  0  0  0  0  0  0  0  0
    2.8540    0.2400    1.4690 O   0  0  0  0  0  0  0  0  0  0  0  0
    4.1490   -0.0770    1.8430 C   0  0  0  0  0  0  0  0  0  0  0  0
    5.3260    0.3880    1.1050 C   0  0  0  0  0  0  0  0  0  0  0  0
    6.9180   -0.1540    2.0140 P   0  0  0  0  0  0  0  0  0  0  0  0
    7.2010    0.3220    3.4270 O   0  0  0  0  0  0  0  0  0  0  0  0
    1.1880    0.3050   -0.2850 C   0  0  0  0  0  0  0  0  0  0  0  0
    0.2440    0.5280    0.6940 O   0  0  0  0  0  0  0  0  0  0  0  0
   -4.4890   -0.2270   -0.9840 O   0  0  0  0  0  0  0  0  0  0  0  0
   -5.4030    0.7310   -0.5410 C   0  0  0  0  0  0  0  0  0  0  0  0
   -6.3280    0.1060    0.4740 C   0  0  0  0  0  0  0  0  0  0  0  0
  1  2  1  0
  2  3  1  0
  3  4  1  0
  4  5  1  0
  4 22  1  0
  5  6  1  0
  6  7  1  0
  7  8  2  0
  7 20  1  0
  8  9  1  0
  9 10  1  0
  9 13  2  0
 10 11  2  0
 10 12  1  0
 13 14  1  0
 14 15  1  0
 14 20  2  0
 15 16  1  0
 16 17  1  0
 17 18  1  0
 18 19  2  0
 20 21  1  0
 22 23  1  0
 23 24  1  0
M  END
