
     RDKit          3D

 23 23  0  0  0  0  0  0  0  0999 V2000
    4.2200   -3.6770    1.0820 C   0  0  0  0  0  0  0  0  0  0  0  0
    2.8380   -3.3960    0.5340 C   0  0  0  0  0  0  0  0  0  0  0  0
    2.6810   -1.9120    0.3320 C   0  0  0  0  0  0  0  0  0  0  0  0
    3.6280   -1.1360    0.6140 O   0  0  0  0  0  0  0  0  0  0  0  0
    1.4570   -1.4000   -0.1790 N   0  0  0  0  0  0  0  0  0  0  0  0
    1.2390   -0.0140   -0.3950 C   0  0  0  0  0  0  0  0  0  0  0  0
    2.4570    1.0270   -0.0360 P   0  0  0  0  0  0  0  0  0  0  0  0
    2.4260    3.1850   -0.2540 P   0  0  0  0  0  0  0  0  0  0  0  0
    1.6970    3.9710    1.1260 O   0  0  0  0  0  0  0  0  0  0  0  0
    4.0760    3.7710   -0.3630 O   0  0  0  0  0  0  0  0  0  0  0  0
   -0.0450    0.4580   -0.9150 C   0  0  2  0  0  0  0  0  0  0  0  0
   -0.0950    1.8040   -1.2270 O   0  0  0  0  0  0  0  0  0  0  0  0
   -0.4120    1.9710   -2.5620 C   0  0  0  0  0  0  0  0  0  0  0  0
   -0.4770    3.4500   -2.8480 C   0  0  0  0  0  0  0  0  0  0  0  0
   -1.4810    3.9680   -2.0010 O   0  0  0  0  0  0  0  0  0  0  0  0
   -1.1820    0.0950    0.0030 C   0  0  0  0  0  0  0  0  0  0  0  0
   -1.4760    0.9080    1.0710 C   0  0  0  0  0  0  0  0  0  0  0  0
   -2.5270    0.5980    1.9430 C   0  0  0  0  0  0  0  0  0  0  0  0
   -3.2890   -0.5320    1.7440 C   0  0  0  0  0  0  0  0  0  0  0  0
   -2.9900   -1.3430    0.6720 C   0  0  0  0  0  0  0  0  0  0  0  0
   -3.7530   -2.4990    0.4510 O   0  0  0  0  0  0  0  0  0  0  0  0
   -4.8120   -2.8040    1.3370 C   0  0  0  0  0  0  0  0  0  0  0  0
   -1.9450   -1.0270   -0.1880 C   0  0  0  0  0  0  0  0  0  0  0  0
  1  2  1  0
  2  3  1  0
  3  4  2  0
  3  5  1  0
  5  6  1  0
  6  7  2  3
  6 11  1  0
  7  8  1  0
  8  9  1  0
  8 10  1  0
 11 12  1  1
 11 16  1  0
 12 13  1  0
 13 14  1  0
 14 15  1  0
 16 17  2  0
 16 23  1  0
 17 18  1  0
 18 19  2  0
 19 20  1  0
 20 21  1  0
 20 23  2  0
 21 22  1  0
M  END
