
     RDKit          3D

 23 23  0  0  0  0  0  0  0  0999 V2000
   -5.1740   -0.5930   -0.8650 C   0  0  0  0  0  0  0  0  0  0  0  0
   -5.4690    0.6210   -0.5230 C   0  0  0  0  0  0  0  0  0  0  0  0
   -4.3210    1.5460   -0.1490 C   0  0  0  0  0  0  0  0  0  0  0  0
   -4.6290    2.7530    0.1900 C   0  0  0  0  0  0  0  0  0  0  0  0
   -3.8240    3.8770    0.5930 C   0  0  0  0  0  0  0  0  0  0  0  0
   -3.0030    0.9440   -0.2010 C   0  0  0  0  0  0  0  0  0  0  0  0
   -1.8830    1.8150    0.2280 C   0  0  0  0  0  0  0  0  0  0  0  0
   -0.6770    1.0430    0.0660 O   0  0  0  0  0  0  0  0  0  0  0  0
   -0.2000    0.5750   -1.1170 C   0  0  0  0  0  0  0  0  0  0  0  0
   -0.7980    0.8000   -2.1790 O   0  0  0  0  0  0  0  0  0  0  0  0
    1.0640   -0.2270   -1.1740 C   0  0  0  0  0  0  0  0  0  0  0  0
    1.8650   -0.5890   -0.1800 C   0  0  0  0  0  0  0  0  0  0  0  0
    2.9800   -1.3240   -0.4200 C   0  0  0  0  0  0  0  0  0  0  0  0
    3.9260   -1.7740    0.5960 N   0  0  0  0  0  0  0  0  0  0  0  0
    3.7900   -1.4970    1.9440 C   0  0  0  0  0  0  0  0  0  0  0  0
    2.8720   -0.8500    2.4420 O   0  0  0  0  0  0  0  0  0  0  0  0
    4.7720   -1.9890    2.8290 O   0  0  0  0  0  0  0  0  0  0  0  0
    4.6450   -1.7110    4.2170 C   0  0  0  0  0  0  0  0  0  0  0  0
    3.2050   -1.6510   -1.7300 C   0  0  0  0  0  0  0  0  0  0  0  0
    4.2050   -2.3830   -2.4540 C   0  0  0  0  0  0  0  0  0  0  0  0
    4.1750   -2.5640   -3.8600 N   0  0  0  0  0  0  0  0  0  0  0  0
    5.1660   -2.9010   -1.8460 O   0  0  0  0  0  0  0  0  0  0  0  0
    1.7610   -0.8730   -2.6410 S   0  0  0  0  0  0  0  0  0  0  0  0
  1  2  2  0
  2  3  1  0
  3  4  2  3
  3  6  1  0
  4  5  1  0
  6  7  1  0
  7  8  1  0
  8  9  1  0
  9 10  2  0
  9 11  1  0
 11 12  2  0
 11 23  1  0
 12 13  1  0
 13 14  1  0
 13 19  2  0
 14 15  1  0
 15 16  2  0
 15 17  1  0
 17 18  1  0
 19 20  1  0
 19 23  1  0
 20 21  1  0
 20 22  2  0
M  END
