
     RDKit          3D

 23 23  0  0  0  0  0  0  0  0999 V2000
   -2.8950    2.1930    3.4700 C   0  0  0  0  0  0  0  0  0  0  0  0
   -2.8320    2.5270    2.0070 C   0  0  0  0  0  0  0  0  0  0  0  0
   -2.3420    1.4060    1.2980 O   0  0  0  0  0  0  0  0  0  0  0  0
   -2.9740    0.1760    1.3000 C   0  0  0  0  0  0  0  0  0  0  0  0
   -4.0320    0.0490    1.9610 O   0  0  0  0  0  0  0  0  0  0  0  0
   -2.4240   -0.9610    0.5470 C   0  0  0  0  0  0  0  0  0  0  0  0
   -1.1510   -0.5740   -0.1690 C   0  0  0  0  0  0  0  0  0  0  0  0
   -1.0600   -0.6480   -1.4110 N   0  0  0  0  0  0  0  0  0  0  0  0
   -2.0380   -1.0730   -2.3360 C   0  0  0  0  0  0  0  0  0  0  0  0
   -2.2380   -2.5270   -2.3750 C   0  0  0  0  0  0  0  0  0  0  0  0
   -3.0900   -3.0020   -3.1680 O   0  0  0  0  0  0  0  0  0  0  0  0
   -1.5450   -3.4320   -1.5870 O   0  0  0  0  0  0  0  0  0  0  0  0
   -1.7630   -4.8280   -1.6520 C   0  0  0  0  0  0  0  0  0  0  0  0
    0.1760   -0.0170    0.8500 S   0  0  0  0  0  0  0  0  0  0  0  0
    1.6560    0.4330    0.0140 C   0  0  0  0  0  0  0  0  0  0  0  0
    1.8270    0.3770   -1.3450 C   0  0  0  0  0  0  0  0  0  0  0  0
    3.0280    0.7500   -1.9310 C   0  0  0  0  0  0  0  0  0  0  0  0
    3.1950    0.6860   -3.3560 N   0  0  0  0  0  0  0  0  0  0  0  0
    4.0360    1.1770   -1.1080 C   0  0  0  0  0  0  0  0  0  0  0  0
    3.9250    1.2560    0.2610 C   0  0  0  0  0  0  0  0  0  0  0  0
    5.0000    1.7020    1.0270 O   0  0  0  0  0  0  0  0  0  0  0  0
    4.9420    1.8030    2.4310 C   0  0  0  0  0  0  0  0  0  0  0  0
    2.7280    0.8800    0.8080 C   0  0  0  0  0  0  0  0  0  0  0  0
  1  2  1  0
  2  3  1  0
  3  4  1  0
  4  5  2  0
  4  6  1  0
  6  7  1  0
  7  8  2  3
  7 14  1  0
  8  9  1  0
  9 10  1  0
 10 11  2  0
 10 12  1  0
 12 13  1  0
 14 15  1  0
 15 16  2  0
 15 23  1  0
 16 17  1  0
 17 18  1  0
 17 19  2  0
 19 20  1  0
 20 21  1  0
 20 23  2  0
 21 22  1  0
M  END
