
     RDKit          3D

 23 23  0  0  0  0  0  0  0  0999 V2000
   -6.1650    0.9200    0.8630 C   0  0  0  0  0  0  0  0  0  0  0  0
   -4.8110    0.8290    0.3070 C   0  0  0  0  0  0  0  0  0  0  0  0
   -3.9740    1.6250    0.6970 O   0  0  0  0  0  0  0  0  0  0  0  0
   -4.3860   -0.1720   -0.7040 C   0  0  2  0  0  0  0  0  0  0  0  0
   -5.2770    0.0400   -1.9230 C   0  0  0  0  0  0  0  0  0  0  0  0
   -4.7110   -1.5500   -0.1710 C   0  0  0  0  0  0  0  0  0  0  0  0
   -3.0110   -0.0240   -1.0610 N   0  0  0  0  0  0  0  0  0  0  0  0
   -1.9840   -0.1440   -0.0950 C   0  0  0  0  0  0  0  0  0  0  0  0
   -2.3150   -0.3840    1.0870 O   0  0  0  0  0  0  0  0  0  0  0  0
   -0.5570    0.0110   -0.4710 C   0  0  0  0  0  0  0  0  0  0  0  0
    0.2940   -0.1670    0.7510 C   0  0  0  0  0  0  0  0  0  0  0  0
    1.7300   -0.0070    0.3510 C   0  0  0  0  0  0  0  0  0  0  0  0
    1.9980    0.2310   -0.8440 O   0  0  0  0  0  0  0  0  0  0  0  0
    2.7810   -0.1190    1.2810 N   0  0  0  0  0  0  0  0  0  0  0  0
    4.1640    0.0070    1.0460 C   0  0  0  0  0  0  0  0  0  0  0  0
    4.7170    0.2700   -0.1910 C   0  0  0  0  0  0  0  0  0  0  0  0
    6.0860    0.3900   -0.4020 C   0  0  0  0  0  0  0  0  0  0  0  0
    6.7680    0.7280   -1.9990 S   0  0  0  0  0  0  0  0  0  0  0  0
    5.8030    0.4020   -3.1150 O   0  0  0  0  0  0  0  0  0  0  0  0
    6.9580    0.2460    0.6470 C   0  0  0  0  0  0  0  0  0  0  0  0
    6.4540   -0.0160    1.8940 C   0  0  0  0  0  0  0  0  0  0  0  0
    5.0840   -0.1300    2.0730 C   0  0  0  0  0  0  0  0  0  0  0  0
    4.6420   -0.3930    3.3410 O   0  0  0  0  0  0  0  0  0  0  0  0
  1  2  1  0
  2  3  2  0
  2  4  1  0
  4  5  1  6
  4  6  1  0
  4  7  1  0
  7  8  1  0
  8  9  2  0
  8 10  1  0
 10 11  1  0
 11 12  1  0
 12 13  2  0
 12 14  1  0
 14 15  1  0
 15 16  2  0
 15 22  1  0
 16 17  1  0
 17 18  1  0
 17 20  2  0
 18 19  2  0
 20 21  1  0
 21 22  2  0
 22 23  1  0
M  END
