
     RDKit          3D

 23 23  0  0  0  0  0  0  0  0999 V2000
   -6.0010   -1.9250    0.4060 C   0  0  0  0  0  0  0  0  0  0  0  0
   -6.0850   -0.5290    1.0000 C   0  0  0  0  0  0  0  0  0  0  0  0
   -4.7030   -0.1180    1.3900 C   0  0  0  0  0  0  0  0  0  0  0  0
   -3.8550   -0.1310    0.1240 C   0  0  0  0  0  0  0  0  0  0  0  0
   -2.4190    0.2600    0.4620 C   0  0  0  0  0  0  0  0  0  0  0  0
   -2.1530    0.7470    1.7780 C   0  0  0  0  0  0  0  0  0  0  0  0
   -0.4750    1.0870    1.7780 S   0  0  0  0  0  0  0  0  0  0  0  0
   -0.1440    0.6030    0.1040 C   0  0  0  0  0  0  0  0  0  0  0  0
    1.1520    0.6650   -0.4970 N   0  0  0  0  0  0  0  0  0  0  0  0
    2.2460    1.1390    0.3210 C   0  0  0  0  0  0  0  0  0  0  0  0
    2.0580    1.4790    1.5080 O   0  0  0  0  0  0  0  0  0  0  0  0
    3.5940    1.2230   -0.2460 C   0  0  0  0  0  0  0  0  0  0  0  0
    3.8190    0.8920   -1.4510 O   0  0  0  0  0  0  0  0  0  0  0  0
    4.6530    1.6640    0.5230 O   0  0  0  0  0  0  0  0  0  0  0  0
    5.9510    1.7470   -0.0120 C   0  0  0  0  0  0  0  0  0  0  0  0
    6.4880    0.4240   -0.4850 C   0  0  0  0  0  0  0  0  0  0  0  0
    6.5430   -0.5550    0.6330 C   0  0  0  0  0  0  0  0  0  0  0  0
    7.0380   -1.8710    0.4630 N   0  0  0  0  0  0  0  0  0  0  0  0
    6.1390   -0.1980    1.7540 O   0  0  0  0  0  0  0  0  0  0  0  0
   -1.3800    0.1950   -0.3730 C   0  0  0  0  0  0  0  0  0  0  0  0
   -1.4370   -0.2860   -1.7700 C   0  0  0  0  0  0  0  0  0  0  0  0
   -2.6500   -0.7620   -2.4360 C   0  0  0  0  0  0  0  0  0  0  0  0
   -0.3680   -0.3010   -2.4700 O   0  0  0  0  0  0  0  0  0  0  0  0
  1  2  1  0
  2  3  1  0
  3  4  1  0
  4  5  1  0
  5  6  2  0
  5 20  1  0
  6  7  1  0
  7  8  1  0
  8  9  1  0
  8 20  2  0
  9 10  1  0
 10 11  2  0
 10 12  1  0
 12 13  2  0
 12 14  1  0
 14 15  1  0
 15 16  1  0
 16 17  1  0
 17 18  1  0
 17 19  2  0
 20 21  1  0
 21 22  1  0
 21 23  2  0
M  END
