
     RDKit          3D

 23 23  0  0  0  0  0  0  0  0999 V2000
    5.8910    1.8880   -0.0500 C   0  0  0  0  0  0  0  0  0  0  0  0
    5.6780    0.6380    0.3070 C   0  0  0  0  0  0  0  0  0  0  0  0
    6.7830   -0.2220    0.4050 O   0  0  0  0  0  0  0  0  0  0  0  0
    4.3230    0.1610    0.5900 C   0  0  0  0  0  0  0  0  0  0  0  0
    3.9730   -0.9710   -0.2710 N   0  0  0  0  0  0  0  0  0  0  0  0
    2.6690   -1.6090   -0.1880 C   0  0  0  0  0  0  0  0  0  0  0  0
    1.8770   -1.1450    0.6210 O   0  0  0  0  0  0  0  0  0  0  0  0
    2.3780   -2.7480   -1.0540 C   0  0  0  0  0  0  0  0  0  0  0  0
    0.7130   -3.3120   -1.0280 S   0  0  0  0  0  0  0  0  0  0  0  0
   -0.5220   -2.3880   -1.8730 C   0  0  0  0  0  0  0  0  0  0  0  0
   -0.9730   -1.1420   -1.2620 C   0  0  0  0  0  0  0  0  0  0  0  0
   -1.3800   -0.1580   -2.0170 O   0  0  0  0  0  0  0  0  0  0  0  0
   -1.0460   -0.8280    0.1150 N   0  0  0  0  0  0  0  0  0  0  0  0
   -1.5080    0.4240    0.5970 C   0  0  0  0  0  0  0  0  0  0  0  0
   -0.7630    1.2460    1.3160 C   0  0  0  0  0  0  0  0  0  0  0  0
   -1.2640    2.5180    1.7930 C   0  0  0  0  0  0  0  0  0  0  0  0
   -0.5190    3.2890    2.4790 O   0  0  0  0  0  0  0  0  0  0  0  0
   -2.6240    2.9640    1.5120 C   0  0  0  0  0  0  0  0  0  0  0  0
   -3.3660    1.9790    0.7050 C   0  0  0  0  0  0  0  0  0  0  0  0
   -2.8780    0.8290    0.2850 C   0  0  0  0  0  0  0  0  0  0  0  0
   -3.6260   -0.0640   -0.4720 O   0  0  0  0  0  0  0  0  0  0  0  0
   -4.7630   -0.7520   -0.0840 C   0  0  0  0  0  0  0  0  0  0  0  0
   -5.9370    0.1030    0.3110 C   0  0  0  0  0  0  0  0  0  0  0  0
  1  2  2  0
  2  3  1  0
  2  4  1  0
  4  5  1  0
  5  6  1  0
  6  7  2  0
  6  8  1  0
  8  9  1  0
  9 10  1  0
 10 11  1  0
 11 12  2  0
 11 13  1  0
 13 14  1  0
 14 15  2  0
 14 20  1  0
 15 16  1  0
 16 17  2  0
 16 18  1  0
 18 19  1  0
 19 20  2  0
 20 21  1  0
 21 22  1  0
 22 23  1  0
M  END
