
     RDKit          3D

 23 23  0  0  0  0  0  0  0  0999 V2000
    4.8980    1.0260    1.0890 C   0  0  0  0  0  0  0  0  0  0  0  0
    3.7960    1.4960    0.1710 C   0  0  0  0  0  0  0  0  0  0  0  0
    2.4860    0.9620    0.6790 C   0  0  0  0  0  0  0  0  0  0  0  0
    2.4640   -0.4380    0.6380 O   0  0  0  0  0  0  0  0  0  0  0  0
    2.5380   -1.2370   -0.4670 C   0  0  0  0  0  0  0  0  0  0  0  0
    1.4080   -1.5170   -1.1120 C   0  0  0  0  0  0  0  0  0  0  0  0
    0.1360   -0.9790   -0.6330 C   0  0  0  0  0  0  0  0  0  0  0  0
   -0.9570   -1.2650   -1.2920 C   0  0  0  0  0  0  0  0  0  0  0  0
   -2.2680   -0.7890   -0.9110 C   0  0  0  0  0  0  0  0  0  0  0  0
   -3.2700   -1.1350   -1.6340 O   0  0  0  0  0  0  0  0  0  0  0  0
   -2.4720    0.0290    0.2100 N   0  0  0  0  0  0  0  0  0  0  0  0
   -3.7810    0.5440    0.6340 C   0  0  0  0  0  0  0  0  0  0  0  0
   -3.8490    1.0320    1.9330 C   0  0  0  0  0  0  0  0  0  0  0  0
   -5.5940    1.5760    2.0260 S   0  0  0  0  0  0  0  0  0  0  0  0
   -6.0250    1.1130    0.3910 C   0  0  0  0  0  0  0  0  0  0  0  0
   -7.3390    1.2600   -0.2700 C   0  0  0  0  0  0  0  0  0  0  0  0
   -8.4280    1.8350    0.4350 N   0  0  0  0  0  0  0  0  0  0  0  0
   -7.5170    0.8880   -1.4440 O   0  0  0  0  0  0  0  0  0  0  0  0
   -4.8470    0.5800   -0.1320 C   0  0  0  0  0  0  0  0  0  0  0  0
    3.7540   -1.8130   -0.9980 C   0  0  0  0  0  0  0  0  0  0  0  0
    3.7230   -2.5490   -2.0560 O   0  0  0  0  0  0  0  0  0  0  0  0
    5.0180   -1.6570   -0.4710 O   0  0  0  0  0  0  0  0  0  0  0  0
    6.1840   -2.2440   -1.0270 C   0  0  0  0  0  0  0  0  0  0  0  0
  1  2  1  0
  2  3  1  0
  3  4  1  0
  4  5  1  0
  5  6  2  3
  5 20  1  0
  6  7  1  0
  7  8  2  3
  8  9  1  0
  9 10  2  0
  9 11  1  0
 11 12  1  0
 12 13  2  0
 12 19  1  0
 13 14  1  0
 14 15  1  0
 15 16  1  0
 15 19  2  0
 16 17  1  0
 16 18  2  0
 20 21  2  0
 20 22  1  0
 22 23  1  0
M  END
