
     RDKit          3D

 23 23  0  0  0  0  0  0  0  0999 V2000
    3.9730    3.2990    0.3200 C   0  0  0  0  0  0  0  0  0  0  0  0
    2.5130    2.9220    0.4450 C   0  0  0  0  0  0  0  0  0  0  0  0
    2.2350    1.9920   -0.5820 O   0  0  0  0  0  0  0  0  0  0  0  0
    0.9420    1.4940   -0.6680 C   0  0  0  0  0  0  0  0  0  0  0  0
    0.1060    1.8950    0.1620 O   0  0  0  0  0  0  0  0  0  0  0  0
    0.5750    0.5160   -1.7180 C   0  0  0  0  0  0  0  0  0  0  0  0
    0.7640   -0.8440   -1.1830 C   0  0  0  0  0  0  0  0  0  0  0  0
    1.9290   -1.4110   -1.3000 N   0  0  0  0  0  0  0  0  0  0  0  0
    2.1140   -2.7180   -0.7880 C   0  0  0  0  0  0  0  0  0  0  0  0
    2.8640   -2.7090    0.4960 C   0  0  0  0  0  0  0  0  0  0  0  0
    3.2620   -1.6450    1.0220 O   0  0  0  0  0  0  0  0  0  0  0  0
    3.1080   -3.9360    1.0950 O   0  0  0  0  0  0  0  0  0  0  0  0
    3.8070   -4.0020    2.3050 C   0  0  0  0  0  0  0  0  0  0  0  0
   -0.5650   -1.6950   -0.3990 S   0  0  0  0  0  0  0  0  0  0  0  0
   -2.0600   -0.7340   -0.4980 C   0  0  0  0  0  0  0  0  0  0  0  0
   -2.8680   -0.8550   -1.6360 C   0  0  0  0  0  0  0  0  0  0  0  0
   -4.0430   -0.1710   -1.7820 C   0  0  0  0  0  0  0  0  0  0  0  0
   -4.8610   -0.3060   -2.9560 N   0  0  0  0  0  0  0  0  0  0  0  0
   -4.4450    0.6700   -0.7680 C   0  0  0  0  0  0  0  0  0  0  0  0
   -3.6570    0.8060    0.3740 C   0  0  0  0  0  0  0  0  0  0  0  0
   -4.0650    1.6500    1.3880 O   0  0  0  0  0  0  0  0  0  0  0  0
   -3.2810    1.7930    2.5360 C   0  0  0  0  0  0  0  0  0  0  0  0
   -2.4760    0.1120    0.5090 C   0  0  0  0  0  0  0  0  0  0  0  0
  1  2  1  0
  2  3  1  0
  3  4  1  0
  4  5  2  0
  4  6  1  0
  6  7  1  0
  7  8  2  3
  7 14  1  0
  8  9  1  0
  9 10  1  0
 10 11  2  0
 10 12  1  0
 12 13  1  0
 14 15  1  0
 15 16  2  0
 15 23  1  0
 16 17  1  0
 17 18  1  0
 17 19  2  0
 19 20  1  0
 20 21  1  0
 20 23  2  0
 21 22  1  0
M  END
