
     RDKit          3D

 23 23  0  0  0  0  0  0  0  0999 V2000
   -4.0760    3.0880    0.7960 C   0  0  0  0  0  0  0  0  0  0  0  0
   -4.7710    2.1200    1.2930 C   0  0  0  0  0  0  0  0  0  0  0  0
   -4.4510    0.7090    1.2480 C   0  0  0  0  0  0  0  0  0  0  0  0
   -5.3120   -0.1850    1.7920 C   0  0  0  0  0  0  0  0  0  0  0  0
   -4.9340   -1.6090    1.7180 C   0  0  0  0  0  0  0  0  0  0  0  0
   -3.2130    0.2230    0.5970 C   0  0  0  0  0  0  0  0  0  0  0  0
   -2.0350    0.7000    1.3700 C   0  0  0  0  0  0  0  0  0  0  0  0
   -0.7900    0.3250    0.8120 O   0  0  0  0  0  0  0  0  0  0  0  0
   -0.4170   -0.9830    0.6320 C   0  0  0  0  0  0  0  0  0  0  0  0
   -1.1920   -1.8870    0.9690 O   0  0  0  0  0  0  0  0  0  0  0  0
    0.9000   -1.2510    0.0420 C   0  0  0  0  0  0  0  0  0  0  0  0
    1.8570   -0.4070   -0.3770 C   0  0  0  0  0  0  0  0  0  0  0  0
    3.0080   -0.8740   -0.8940 C   0  0  0  0  0  0  0  0  0  0  0  0
    4.1140   -0.0740   -1.3800 N   0  0  0  0  0  0  0  0  0  0  0  0
    4.1180    1.3320   -1.3690 C   0  0  0  0  0  0  0  0  0  0  0  0
    3.1950    2.0340   -0.9510 O   0  0  0  0  0  0  0  0  0  0  0  0
    5.2380    2.0480   -1.8620 O   0  0  0  0  0  0  0  0  0  0  0  0
    5.2300    3.4610   -1.8450 C   0  0  0  0  0  0  0  0  0  0  0  0
    3.1290   -2.2560   -0.9610 C   0  0  0  0  0  0  0  0  0  0  0  0
    4.1860   -3.1160   -1.4400 C   0  0  0  0  0  0  0  0  0  0  0  0
    3.9760   -4.5330   -1.3600 N   0  0  0  0  0  0  0  0  0  0  0  0
    5.2760   -2.7680   -1.9230 O   0  0  0  0  0  0  0  0  0  0  0  0
    1.5720   -2.8530   -0.2720 S   0  0  0  0  0  0  0  0  0  0  0  0
  1  2  2  0
  2  3  1  0
  3  4  2  3
  3  6  1  0
  4  5  1  0
  6  7  1  0
  7  8  1  0
  8  9  1  0
  9 10  2  0
  9 11  1  0
 11 12  2  0
 11 23  1  0
 12 13  1  0
 13 14  1  0
 13 19  2  0
 14 15  1  0
 15 16  2  0
 15 17  1  0
 17 18  1  0
 19 20  1  0
 19 23  1  0
 20 21  1  0
 20 22  2  0
M  END
