
     RDKit          3D

 22 22  0  0  0  0  0  0  0  0999 V2000
    3.2320    2.6760    0.6450 C   0  0  0  0  0  0  0  0  0  0  0  0
    3.7910    1.8580   -0.4270 C   0  0  0  0  0  0  0  0  0  0  0  0
    4.5790    2.6640   -1.3580 O   0  0  0  0  0  0  0  0  0  0  0  0
    3.7540    0.6250   -0.7400 C   0  0  0  0  0  0  0  0  0  0  0  0
    4.5480    0.2550   -2.0290 C   0  0  0  0  0  0  0  0  0  0  0  0
    3.5950   -0.3060   -2.9530 N   0  0  0  0  0  0  0  0  0  0  0  0
    3.1500   -0.4770   -0.1660 N   0  0  0  0  0  0  0  0  0  0  0  0
    2.3550   -0.5890    0.9880 C   0  0  0  0  0  0  0  0  0  0  0  0
    2.1020    0.4070    1.6640 O   0  0  0  0  0  0  0  0  0  0  0  0
    1.8080   -1.9440    1.4020 C   0  0  0  0  0  0  0  0  0  0  0  0
    0.1960   -2.1590    0.6010 S   0  0  0  0  0  0  0  0  0  0  0  0
   -0.4610   -3.7480    1.0810 C   0  0  0  0  0  0  0  0  0  0  0  0
   -1.7550   -3.9570    1.2400 C   0  0  0  0  0  0  0  0  0  0  0  0
   -2.7060   -2.8770    1.0230 C   0  0  0  0  0  0  0  0  0  0  0  0
   -3.9420   -3.0380    1.1640 O   0  0  0  0  0  0  0  0  0  0  0  0
   -2.2730   -1.6050    0.6450 O   0  0  0  0  0  0  0  0  0  0  0  0
   -3.1640   -0.5270    0.4240 C   0  0  1  0  0  0  0  0  0  0  0  0
   -2.8390    0.5430    1.4280 C   0  0  0  0  0  0  0  0  0  0  0  0
   -3.4370    1.8790    1.0870 C   0  0  0  0  0  0  0  0  0  0  0  0
   -4.2710    1.8370   -0.1710 C   0  0  0  0  0  0  0  0  0  0  0  0
   -3.3920    1.3180   -1.2760 C   0  0  0  0  0  0  0  0  0  0  0  0
   -3.0020   -0.0870   -1.0000 C   0  0  0  0  0  0  0  0  0  0  0  0
  1  2  1  0
  2  3  1  0
  2  4  2  3
  4  5  1  0
  4  7  1  0
  5  6  1  0
  7  8  1  0
  8  9  2  0
  8 10  1  0
 10 11  1  0
 11 12  1  0
 12 13  2  3
 13 14  1  0
 14 15  2  0
 14 16  1  0
 17 16  1  1
 17 18  1  0
 17 22  1  0
 18 19  1  0
 19 20  1  0
 20 21  1  0
 21 22  1  0
M  END
