
     RDKit          3D

 22 21  0  0  0  0  0  0  0  0999 V2000
   -4.3490   -1.0550    0.7520 C   0  0  0  0  0  0  0  0  0  0  0  0
   -3.4470    0.1160    0.5600 C   0  0  1  0  0  0  0  0  0  0  0  0
   -3.9080    1.2230    1.2420 F   0  0  0  0  0  0  0  0  0  0  0  0
   -2.0320   -0.1500    1.0760 C   0  0  0  0  0  0  0  0  0  0  0  0
   -1.4260   -1.1660    0.4360 O   0  0  0  0  0  0  0  0  0  0  0  0
   -0.1780   -1.5650    0.7210 C   0  0  0  0  0  0  0  0  0  0  0  0
    0.9510   -0.6110    0.5560 C   0  0  2  0  0  0  0  0  0  0  0  0
    1.0910   -0.1000   -0.7210 F   0  0  0  0  0  0  0  0  0  0  0  0
    2.1130   -1.4480    0.7470 F   0  0  0  0  0  0  0  0  0  0  0  0
    1.1140    0.4020    1.6010 C   0  0  0  0  0  0  0  0  0  0  0  0
    0.4960    0.3310    2.6360 O   0  0  0  0  0  0  0  0  0  0  0  0
    2.2340    1.7720    1.3800 S   0  0  0  0  0  0  0  0  0  0  0  0
    3.0810    1.7090   -0.2110 C   0  0  0  0  0  0  0  0  0  0  0  0
    3.9400    0.6160   -0.2970 O   0  0  0  0  0  0  0  0  0  0  0  0
    4.5570    0.6260   -1.5430 C   0  0  0  0  0  0  0  0  0  0  0  0
    5.4790   -0.5230   -1.6650 C   0  0  0  0  0  0  0  0  0  0  0  0
    5.5970   -1.3220   -0.6990 O   0  0  0  0  0  0  0  0  0  0  0  0
    6.2330   -0.7780   -2.7950 O   0  0  0  0  0  0  0  0  0  0  0  0
   -3.4140    0.4550   -0.8500 N   0  0  0  0  0  0  0  0  0  0  0  0
   -4.5890    0.8210   -1.5530 C   0  0  0  0  0  0  0  0  0  0  0  0
   -5.6820    0.8560   -0.9500 O   0  0  0  0  0  0  0  0  0  0  0  0
   -4.5970    1.1510   -2.9010 O   0  0  0  0  0  0  0  0  0  0  0  0
  2  1  1  6
  2  3  1  0
  2  4  1  0
  2 19  1  0
  4  5  1  0
  5  6  1  0
  6  7  1  0
  7  8  1  6
  7  9  1  0
  7 10  1  0
 10 11  2  0
 10 12  1  0
 12 13  1  0
 13 14  1  0
 14 15  1  0
 15 16  1  0
 16 17  2  0
 16 18  1  0
 19 20  1  0
 20 21  2  0
 20 22  1  0
M  END
