
     RDKit          3D

 22 22  0  0  0  0  0  0  0  0999 V2000
    5.8770    0.8680    1.3210 O   0  0  0  0  0  0  0  0  0  0  0  0
    4.8160    0.4420    0.7210 C   0  0  0  0  0  0  0  0  0  0  0  0
    3.5180    1.0450    1.0070 C   0  0  0  0  0  0  0  0  0  0  0  0
    2.4720    0.4860    0.2300 O   0  0  0  0  0  0  0  0  0  0  0  0
    1.1840    1.0160    0.4140 C   0  0  0  0  0  0  0  0  0  0  0  0
    1.0240    1.9360    1.2420 O   0  0  0  0  0  0  0  0  0  0  0  0
    0.0230    0.4950   -0.3670 C   0  0  0  0  0  0  0  0  0  0  0  0
   -1.4890    1.3230   -0.1040 S   0  0  0  0  0  0  0  0  0  0  0  0
   -2.9950    0.4550   -0.1200 C   0  0  0  0  0  0  0  0  0  0  0  0
   -4.0990    1.1780   -0.3650 C   0  0  0  0  0  0  0  0  0  0  0  0
   -5.4000    0.5920   -0.4060 C   0  0  0  0  0  0  0  0  0  0  0  0
   -6.5440    1.2830   -0.6480 F   0  0  0  0  0  0  0  0  0  0  0  0
   -5.5600   -0.7150   -0.2010 C   0  0  0  0  0  0  0  0  0  0  0  0
   -6.8330   -1.3010   -0.2400 O   0  0  0  0  0  0  0  0  0  0  0  0
   -4.4490   -1.4770    0.0510 O   0  0  0  0  0  0  0  0  0  0  0  0
   -3.1170   -0.9940    0.1180 C   0  0  0  0  0  0  0  0  0  0  0  0
    0.2920   -0.4750   -1.2030 C   0  0  0  0  0  0  0  0  0  0  0  0
    1.5480   -0.9620   -1.3280 F   0  0  0  0  0  0  0  0  0  0  0  0
   -0.6260   -1.0000   -2.0170 F   0  0  0  0  0  0  0  0  0  0  0  0
    4.9310   -0.6120   -0.2150 N   0  0  0  0  0  0  0  0  0  0  0  0
    6.1400   -1.1710   -0.4880 O   0  0  0  0  0  0  0  0  0  0  0  0
    6.8920   -1.2800    0.5700 O   0  0  0  0  0  0  0  0  0  0  0  0
  1  2  2  0
  2  3  1  0
  2 20  1  0
  3  4  1  0
  4  5  1  0
  5  6  2  0
  5  7  1  0
  7  8  1  0
  7 17  2  3
  8  9  1  0
  9 10  2  0
  9 16  1  0
 10 11  1  0
 11 12  1  0
 11 13  2  0
 13 14  1  0
 13 15  1  0
 15 16  1  0
 17 18  1  0
 17 19  1  0
 20 21  1  0
 21 22  1  0
M  END
