
     RDKit          3D

 22 22  0  0  0  0  0  0  0  0999 V2000
    2.1730   -0.3900   -1.3470 C   0  0  0  0  0  0  0  0  0  0  0  0
    1.8090   -1.2620   -0.0840 C   0  0  1  0  0  0  0  0  0  0  0  0
    1.5970   -2.4840   -0.6800 O   0  0  0  0  0  0  0  0  0  0  0  0
    3.0320   -1.2500    0.8000 C   0  0  0  0  0  0  0  0  0  0  0  0
    4.1670   -1.1470   -0.0960 O   0  0  0  0  0  0  0  0  0  0  0  0
    4.9390    0.2920    0.5560 P   0  0  0  0  0  0  0  0  0  0  0  0
    6.5300    0.5350    0.4760 O   0  0  0  0  0  0  0  0  0  0  0  0
    3.8620    1.2610    1.4200 O   0  0  0  0  0  0  0  0  0  0  0  0
    0.4630   -0.5490    0.7510 S   0  0  1  0  0  0  0  0  0  0  0  0
    0.4250   -0.8860    2.1620 O   0  0  0  0  0  0  0  0  0  0  0  0
    0.7680    1.0500    0.6690 O   0  0  0  0  0  0  0  0  0  0  0  0
   -1.0300   -0.6530   -0.1510 C   0  0  0  0  0  0  0  0  0  0  0  0
   -2.2020   -0.1990    0.7160 C   0  0  1  0  0  0  0  0  0  0  0  0
   -1.9680    1.1450    1.3280 C   0  0  0  0  0  0  0  0  0  0  0  0
   -1.9060    2.2100    0.5170 O   0  0  0  0  0  0  0  0  0  0  0  0
   -3.0870    2.3690   -0.2180 C   0  0  0  0  0  0  0  0  0  0  0  0
   -3.2860    1.1140   -1.0090 C   0  0  0  0  0  0  0  0  0  0  0  0
   -3.3690   -0.0270   -0.1410 N   0  0  0  0  0  0  0  0  0  0  0  0
   -3.8330   -1.1910   -0.8030 C   0  0  1  0  0  0  0  0  0  0  0  0
   -5.2160   -1.2440   -0.7120 F   0  0  0  0  0  0  0  0  0  0  0  0
   -3.5980   -1.0010   -2.1860 F   0  0  0  0  0  0  0  0  0  0  0  0
   -3.3050   -2.3890   -0.4690 F   0  0  0  0  0  0  0  0  0  0  0  0
  2  1  1  6
  2  3  1  0
  2  4  1  0
  2  9  1  0
  4  5  1  0
  5  6  1  0
  6  7  1  0
  6  8  1  0
  9 10  2  0
  9 11  2  0
  9 12  1  6
 13 12  1  6
 13 14  1  0
 13 18  1  0
 14 15  1  0
 15 16  1  0
 16 17  1  0
 17 18  1  0
 18 19  1  0
 19 20  1  6
 19 21  1  0
 19 22  1  0
M  END
