
     RDKit          3D

 22 22  0  0  0  0  0  0  0  0999 V2000
   -1.4050   -1.4400    1.0880 O   0  0  0  0  0  0  0  0  0  0  0  0
   -1.6270   -0.6830    0.1160 C   0  0  0  0  0  0  0  0  0  0  0  0
   -2.9120   -0.5920   -0.3760 O   0  0  0  0  0  0  0  0  0  0  0  0
   -3.9590   -1.3480    0.2170 C   0  0  0  0  0  0  0  0  0  0  0  0
   -3.7200   -2.7120    0.1580 O   0  0  0  0  0  0  0  0  0  0  0  0
   -4.7140   -3.3300    0.7170 O   0  0  0  0  0  0  0  0  0  0  0  0
   -0.4960    0.0790   -0.4600 C   0  0  1  0  0  0  0  0  0  0  0  0
    0.5090   -0.8690   -0.8550 N   0  0  0  0  0  0  0  0  0  0  0  0
    1.6950   -0.7400   -0.3830 C   0  0  0  0  0  0  0  0  0  0  0  0
    2.1260    0.5060    0.6900 S   0  0  0  0  0  0  0  0  0  0  0  0
    3.7540    0.4630    1.1720 C   0  0  0  0  0  0  0  0  0  0  0  0
    4.4950   -0.5660    0.6330 C   0  0  0  0  0  0  0  0  0  0  0  0
    5.8630   -0.6600    0.9940 O   0  0  0  0  0  0  0  0  0  0  0  0
    6.4100    0.2310    1.8360 F   0  0  0  0  0  0  0  0  0  0  0  0
    4.0060   -1.5130   -0.2340 C   0  0  0  0  0  0  0  0  0  0  0  0
    4.8950   -2.4720   -0.6750 F   0  0  0  0  0  0  0  0  0  0  0  0
    2.7290   -1.6090   -0.7100 C   0  0  0  0  0  0  0  0  0  0  0  0
    2.4200   -2.6370   -1.5810 F   0  0  0  0  0  0  0  0  0  0  0  0
   -0.9860    0.8300   -1.5060 O   0  0  0  0  0  0  0  0  0  0  0  0
   -0.8990    2.1880   -1.3430 C   0  0  0  0  0  0  0  0  0  0  0  0
   -1.6380    2.7310   -0.1550 C   0  0  0  0  0  0  0  0  0  0  0  0
   -1.4340    4.1250   -0.1550 O   0  0  0  0  0  0  0  0  0  0  0  0
  1  2  2  0
  2  3  1  0
  2  7  1  0
  3  4  1  0
  4  5  1  0
  5  6  1  0
  7  8  1  0
  7 19  1  6
  8  9  2  3
  9 10  1  0
  9 17  1  0
 10 11  1  0
 11 12  2  0
 12 13  1  0
 12 15  1  0
 13 14  1  0
 15 16  1  0
 15 17  2  0
 17 18  1  0
 19 20  1  0
 20 21  1  0
 21 22  1  0
M  END
