
     RDKit          3D

 22 22  0  0  0  0  0  0  0  0999 V2000
   -0.7720   -1.0290   -0.2440 O   0  0  0  0  0  0  0  0  0  0  0  0
   -1.8670   -0.3720   -0.2690 C   0  0  0  0  0  0  0  0  0  0  0  0
   -2.7730   -0.6060   -1.3920 C   0  0  0  0  0  0  0  0  0  0  0  0
   -4.1900   -0.1840   -1.1770 C   0  0  0  0  0  0  0  0  0  0  0  0
   -4.8500   -0.9250   -0.0720 C   0  0  0  0  0  0  0  0  0  0  0  0
   -4.2350   -0.7520    1.1220 F   0  0  0  0  0  0  0  0  0  0  0  0
   -2.1040    0.4990    0.7530 O   0  0  0  0  0  0  0  0  0  0  0  0
   -1.2440    0.7250    1.8190 C   0  0  0  0  0  0  0  0  0  0  0  0
    0.1030    1.2260    1.4370 C   0  0  0  0  0  0  0  0  0  0  0  0
    0.8940    1.4590    2.3660 O   0  0  0  0  0  0  0  0  0  0  0  0
    0.5200    1.4440    0.1640 O   0  0  0  0  0  0  0  0  0  0  0  0
    1.7100    1.8790   -0.3510 C   0  0  0  0  0  0  0  0  0  0  0  0
    2.9080    1.0810   -0.3020 C   0  0  0  0  0  0  0  0  0  0  0  0
    3.9590    1.6590   -0.6710 O   0  0  0  0  0  0  0  0  0  0  0  0
    3.0600   -0.3010    0.1120 C   0  0  1  0  0  0  0  0  0  0  0  0
    2.7990   -0.4740    1.4520 F   0  0  0  0  0  0  0  0  0  0  0  0
    2.2450   -1.1770   -0.5920 F   0  0  0  0  0  0  0  0  0  0  0  0
    4.4600   -0.7820   -0.0760 C   0  0  0  0  0  0  0  0  0  0  0  0
    5.5090   -0.2160   -0.5370 N   0  0  0  0  0  0  0  0  0  0  0  0
    6.6280   -0.9330   -0.5710 O   0  0  0  0  0  0  0  0  0  0  0  0
    6.5060   -2.2560   -0.6680 O   0  0  0  0  0  0  0  0  0  0  0  0
    5.0780   -2.4390    0.3270 S   0  0  0  0  0  0  0  0  0  0  0  0
  1  2  2  0
  2  3  1  0
  2  7  1  0
  3  4  1  0
  4  5  1  0
  5  6  1  0
  7  8  1  0
  8  9  1  0
  9 10  2  0
  9 11  1  0
 11 12  1  0
 12 13  1  0
 13 14  2  0
 13 15  1  0
 15 16  1  1
 15 17  1  0
 15 18  1  0
 18 19  2  0
 18 22  1  0
 19 20  1  0
 20 21  1  0
 21 22  1  0
M  END
