
     RDKit          3D

 29 31  0  0  0  0  0  0  0  0999 V2000
   -8.0610    2.0720    0.1130 O   0  0  0  0  0  0  0  0  0  0  0  0
   -6.8850    1.5830   -0.1300 C   0  0  0  0  0  0  0  0  0  0  0  0
   -6.7500    0.2410   -0.3270 C   0  0  0  0  0  0  0  0  0  0  0  0
   -5.4570   -0.2630   -0.5720 C   0  0  0  0  0  0  0  0  0  0  0  0
   -4.3710    0.5170   -0.6160 N   0  0  0  0  0  0  0  0  0  0  0  0
   -3.1100   -0.0500   -0.5910 C   0  0  2  0  0  0  0  0  0  0  0  0
   -2.1640   -0.2080   -1.4960 O   0  0  0  0  0  0  0  0  0  0  0  0
   -1.2020   -0.7590   -0.6910 C   0  0  2  0  0  0  0  0  0  0  0  0
    0.0840   -1.2900   -1.0400 C   0  0  0  0  0  0  0  0  0  0  0  0
    0.9070   -0.1780   -1.3230 O   0  0  0  0  0  0  0  0  0  0  0  0
    2.0530    0.0620   -0.3650 P   0  0  0  0  0  0  0  0  0  0  0  0
    1.5870    1.5020    0.4120 O   0  0  0  0  0  0  0  0  0  0  0  0
    1.8860   -1.1820    0.6260 O   0  0  0  0  0  0  0  0  0  0  0  0
    3.4240    0.0760    0.1160 O   0  0  0  0  0  0  0  0  0  0  0  0
    4.1010    0.4580    1.4950 P   0  0  0  0  0  0  0  0  0  0  0  0
    5.2890   -0.3490    2.2250 O   0  0  0  0  0  0  0  0  0  0  0  0
    4.0130    2.0590    1.8470 O   0  0  0  0  0  0  0  0  0  0  0  0
    4.8740    0.3920    0.2560 O   0  0  0  0  0  0  0  0  0  0  0  0
    5.9900    0.3880   -0.7220 P   0  0  0  0  0  0  0  0  0  0  0  0
    5.1830   -0.9860   -0.9780 O   0  0  0  0  0  0  0  0  0  0  0  0
    7.4570    0.0050   -0.1290 O   0  0  0  0  0  0  0  0  0  0  0  0
    5.6970    1.8740   -0.4930 O   0  0  0  0  0  0  0  0  0  0  0  0
   -1.8230   -1.5820    0.4320 C   0  0  1  0  0  0  0  0  0  0  0  0
   -1.8630   -0.8400    1.6050 O   0  0  0  0  0  0  0  0  0  0  0  0
   -3.2250   -1.5690   -0.1270 C   0  0  1  0  0  0  0  0  0  0  0  0
   -4.1720   -1.6820    0.8730 O   0  0  0  0  0  0  0  0  0  0  0  0
   -4.5390    1.8490   -0.4290 C   0  0  0  0  0  0  0  0  0  0  0  0
   -3.5350    2.5970   -0.4980 O   0  0  0  0  0  0  0  0  0  0  0  0
   -5.7990    2.3940   -0.1880 N   0  0  0  0  0  0  0  0  0  0  0  0
  1  2  2  0
  2  3  1  0
  2 29  1  0
  3  4  2  0
  4  5  1  0
  6  5  1  6
  5 27  1  0
  6  7  1  0
  6 25  1  0
  7  8  1  0
  8  9  1  6
  8 23  1  0
  9 10  1  0
 10 11  1  0
 11 12  1  0
 11 13  1  0
 11 14  1  0
 14 15  1  0
 15 16  1  0
 15 17  1  0
 15 18  1  0
 18 19  1  0
 19 20  1  0
 19 21  1  0
 19 22  1  0
 23 24  1  1
 23 25  1  0
 25 26  1  1
 27 28  2  0
 27 29  1  0
 18 14  1  0
M  END
