
     RDKit          3D

 21 21  0  0  0  0  0  0  0  0999 V2000
    1.6030    1.8600    0.6520 C   0  0  0  0  0  0  0  0  0  0  0  0
    1.1900    0.4130    0.4470 C   0  0  2  0  0  0  0  0  0  0  0  0
    1.6190   -0.3120    1.7240 C   0  0  0  0  0  0  0  0  0  0  0  0
    1.8850   -0.2140   -0.7280 C   0  0  0  0  0  0  0  0  0  0  0  0
    3.2550   -0.1160   -0.4970 O   0  0  0  0  0  0  0  0  0  0  0  0
    4.2020   -0.7900   -1.7540 P   0  0  0  0  0  0  0  0  0  0  0  0
    4.7050   -2.4090   -1.4470 O   0  0  0  0  0  0  0  0  0  0  0  0
    5.5000    0.2370   -2.2380 O   0  0  0  0  0  0  0  0  0  0  0  0
   -0.2080    0.3880    0.3580 O   0  0  0  0  0  0  0  0  0  0  0  0
   -0.8520    1.0950   -0.6270 C   0  0  0  0  0  0  0  0  0  0  0  0
   -0.1990    1.7660   -1.4480 O   0  0  0  0  0  0  0  0  0  0  0  0
   -2.3190    1.0640   -0.7160 C   0  0  2  0  0  0  0  0  0  0  0  0
   -2.7900    1.8310   -1.7650 F   0  0  0  0  0  0  0  0  0  0  0  0
   -2.9220    1.4560    0.4780 F   0  0  0  0  0  0  0  0  0  0  0  0
   -2.7580   -0.3800   -0.9390 C   0  0  2  0  0  0  0  0  0  0  0  0
   -2.2490   -0.9110   -2.0760 F   0  0  0  0  0  0  0  0  0  0  0  0
   -4.1960   -0.4010   -0.8670 N   0  0  0  0  0  0  0  0  0  0  0  0
   -4.6930   -0.5760    0.4230 C   0  0  0  0  0  0  0  0  0  0  0  0
   -5.7410    0.0010    0.8690 O   0  0  0  0  0  0  0  0  0  0  0  0
   -3.9150   -1.4900    1.2590 C   0  0  0  0  0  0  0  0  0  0  0  0
   -2.2480   -1.3020    0.5560 S   0  0  0  0  0  0  0  0  0  0  0  0
  2  1  1  1
  2  3  1  0
  2  4  1  0
  2  9  1  0
  4  5  1  0
  5  6  1  0
  6  7  1  0
  6  8  1  0
  9 10  1  0
 10 11  2  0
 10 12  1  0
 12 13  1  6
 12 14  1  0
 12 15  1  0
 15 16  1  6
 15 17  1  0
 15 21  1  0
 17 18  1  0
 18 19  2  0
 18 20  1  0
 20 21  1  0
M  END
