
     RDKit          3D

 28 29  0  0  0  0  0  0  0  0999 V2000
   -6.9330   -2.4510   -1.7590 O   0  0  0  0  0  0  0  0  0  0  0  0
   -6.5740   -1.2190   -1.8240 C   0  0  0  0  0  0  0  0  0  0  0  0
   -7.4120   -0.1330   -2.1320 O   0  0  0  0  0  0  0  0  0  0  0  0
   -6.7170    0.9970   -1.9900 O   0  0  0  0  0  0  0  0  0  0  0  0
   -5.6170    0.7340   -1.2710 C   0  0  1  0  0  0  0  0  0  0  0  0
   -5.8420    0.6830    0.2470 C   0  0  0  0  0  0  0  0  0  0  0  0
   -4.5650    0.4730    0.7250 O   0  0  0  0  0  0  0  0  0  0  0  0
   -4.0950   -0.4830    1.5710 C   0  0  0  0  0  0  0  0  0  0  0  0
   -4.8740   -1.3360    2.0680 O   0  0  0  0  0  0  0  0  0  0  0  0
   -2.6770   -0.5430    1.9790 C   0  0  2  0  0  0  0  0  0  0  0  0
   -2.2830    0.8690    2.2560 N   0  0  0  0  0  0  0  0  0  0  0  0
   -0.9100    0.9820    2.6920 C   0  0  0  0  0  0  0  0  0  0  0  0
   -0.1760   -0.2000    2.4880 O   0  0  0  0  0  0  0  0  0  0  0  0
   -0.4230   -0.5730    1.1710 N   0  0  0  0  0  0  0  0  0  0  0  0
    0.5300   -0.4520    0.1660 C   0  0  0  0  0  0  0  0  0  0  0  0
    0.2720   -0.6780   -1.0660 O   0  0  0  0  0  0  0  0  0  0  0  0
    1.8820   -0.0660    0.5780 C   0  0  0  0  0  0  0  0  0  0  0  0
    2.6120    0.6950   -0.2430 O   0  0  0  0  0  0  0  0  0  0  0  0
    2.9290    0.1150   -1.4870 C   0  0  0  0  0  0  0  0  0  0  0  0
    4.2020    0.9430   -1.7950 C   0  0  0  0  0  0  0  0  0  0  0  0
    5.0590    0.7330   -0.5640 C   0  0  0  0  0  0  0  0  0  0  0  0
    5.5350   -0.7070   -0.5270 C   0  0  0  0  0  0  0  0  0  0  0  0
    6.4950   -0.6520    0.5560 O   0  0  0  0  0  0  0  0  0  0  0  0
    7.6170   -1.1580   -0.0500 O   0  0  0  0  0  0  0  0  0  0  0  0
    7.6700   -0.2840   -1.1530 O   0  0  0  0  0  0  0  0  0  0  0  0
   -1.7410   -1.0350    1.0040 C   0  0  0  0  0  0  0  0  0  0  0  0
   -1.9960   -1.8660    0.0810 O   0  0  0  0  0  0  0  0  0  0  0  0
   -5.3310   -0.6670   -1.5660 O   0  0  0  0  0  0  0  0  0  0  0  0
  1  2  2  0
  2  3  1  0
  2 28  1  0
  3  4  1  0
  4  5  1  0
  5  6  1  1
  5 28  1  0
  6  7  1  0
  7  8  1  0
  8  9  2  0
 10  8  1  6
 10 11  1  0
 10 26  1  0
 11 12  1  0
 12 13  1  0
 13 14  1  0
 14 15  1  0
 14 26  1  0
 15 16  2  0
 15 17  1  0
 17 18  1  0
 18 19  1  0
 19 20  1  0
 20 21  1  0
 21 22  1  0
 22 23  1  0
 23 24  1  0
 24 25  1  0
 26 27  2  0
M  END
