
     RDKit          3D

 28 30  0  0  0  0  0  0  0  0999 V2000
   -3.8830    2.2880    2.5340 N   0  0  0  0  0  0  0  0  0  0  0  0
   -2.9360    1.3430    2.0590 C   0  0  0  0  0  0  0  0  0  0  0  0
   -1.9690    1.0650    2.8080 O   0  0  0  0  0  0  0  0  0  0  0  0
   -3.1290    0.7490    0.7420 C   0  0  2  0  0  0  0  0  0  0  0  0
   -2.1680   -0.1510    0.3630 O   0  0  0  0  0  0  0  0  0  0  0  0
   -1.8700    0.0830   -0.9980 C   0  0  2  0  0  0  0  0  0  0  0  0
   -1.8690   -1.1930   -1.7710 C   0  0  0  0  0  0  0  0  0  0  0  0
   -2.0670   -2.2460   -0.8770 O   0  0  0  0  0  0  0  0  0  0  0  0
   -1.5420   -3.4440   -1.2970 C   0  0  0  0  0  0  0  0  0  0  0  0
   -0.6480   -3.9560   -0.1810 C   0  0  0  0  0  0  0  0  0  0  0  0
   -0.1310   -2.8320    0.5010 O   0  0  0  0  0  0  0  0  0  0  0  0
    1.1640   -2.6700    0.2180 O   0  0  0  0  0  0  0  0  0  0  0  0
    2.0790   -1.8940    0.8520 C   0  0  0  0  0  0  0  0  0  0  0  0
    2.1130   -0.5630    0.9020 C   0  0  0  0  0  0  0  0  0  0  0  0
    3.1860    0.0690    1.6410 N   0  0  0  0  0  0  0  0  0  0  0  0
    4.1230    0.9510    1.0480 C   0  0  0  0  0  0  0  0  0  0  0  0
    4.0180    1.2010   -0.1970 O   0  0  0  0  0  0  0  0  0  0  0  0
    5.1440    1.5580    1.7290 O   0  0  0  0  0  0  0  0  0  0  0  0
    6.0250    2.3980    1.1310 O   0  0  0  0  0  0  0  0  0  0  0  0
    6.4680    1.8650   -0.0090 O   0  0  0  0  0  0  0  0  0  0  0  0
    7.7740    1.9900    0.0160 O   0  0  0  0  0  0  0  0  0  0  0  0
    1.1840    0.2360    0.2890 O   0  0  0  0  0  0  0  0  0  0  0  0
    0.6600    0.1160   -1.0090 C   0  0  0  0  0  0  0  0  0  0  0  0
   -0.6210    0.8930   -1.1050 C   0  0  2  0  0  0  0  0  0  0  0  0
   -0.6730    1.8690   -0.0810 O   0  0  0  0  0  0  0  0  0  0  0  0
   -1.8080    2.6280   -0.2280 C   0  0  0  0  0  0  0  0  0  0  0  0
   -3.0480    1.7750   -0.3840 C   0  0  1  0  0  0  0  0  0  0  0  0
   -2.9230    0.9050   -1.4680 O   0  0  0  0  0  0  0  0  0  0  0  0
  1  2  1  0
  2  3  2  0
  4  2  1  1
  4  5  1  0
  4 27  1  0
  5  6  1  0
  6  7  1  6
  6 24  1  0
  6 28  1  0
  7  8  1  0
  8  9  1  0
  9 10  1  0
 10 11  1  0
 11 12  1  0
 12 13  1  0
 13 14  2  0
 14 15  1  0
 14 22  1  0
 15 16  1  0
 16 17  2  0
 16 18  1  0
 18 19  1  0
 19 20  1  0
 20 21  1  0
 22 23  1  0
 24 23  1  1
 24 25  1  0
 25 26  1  0
 27 26  1  1
 27 28  1  0
M  END
