
     RDKit          3D

 30 30  0  0  0  0  0  0  0  0999 V2000
    4.7970    0.3720   -1.4350 C   0  0  0  0  0  0  0  0  0  0  0  0
    4.6110    0.1580    0.0030 N   0  0  0  0  0  0  0  0  0  0  0  0
    5.7590    0.2030    0.8350 C   0  0  0  0  0  0  0  0  0  0  0  0
    7.0510    0.4440    0.3210 N   0  0  0  0  0  0  0  0  0  0  0  0
    5.6200    0.0240    2.0550 O   0  0  0  0  0  0  0  0  0  0  0  0
    3.3300   -0.0800    0.5100 C   0  0  0  0  0  0  0  0  0  0  0  0
    3.2040   -0.2610    1.7600 O   0  0  0  0  0  0  0  0  0  0  0  0
    2.1550   -0.1240   -0.3510 C   0  0  0  0  0  0  0  0  0  0  0  0
    2.2860    0.0560   -1.5890 O   0  0  0  0  0  0  0  0  0  0  0  0
    0.7920   -0.3840    0.2350 C   0  0  2  0  0  0  0  0  0  0  0  0
    0.8780   -1.7840    0.8570 C   0  0  0  0  0  0  0  0  0  0  0  0
   -0.3770   -2.3720    0.9510 O   0  0  0  0  0  0  0  0  0  0  0  0
   -1.3530   -1.5550    0.7490 O   0  0  0  0  0  0  0  0  0  0  0  0
   -2.4770   -2.1110    0.1760 C   0  0  1  0  0  0  0  0  0  0  0  0
   -2.9340   -3.3380    0.8680 C   0  0  0  0  0  0  0  0  0  0  0  0
   -2.3640   -3.8260    1.8690 O   0  0  0  0  0  0  0  0  0  0  0  0
   -4.0570   -3.9790    0.3740 O   0  0  0  0  0  0  0  0  0  0  0  0
   -3.5950   -1.0720    0.3050 C   0  0  0  0  0  0  0  0  0  0  0  0
   -3.7570   -0.4660   -0.9480 O   0  0  0  0  0  0  0  0  0  0  0  0
   -3.9050    0.9180   -1.1260 C   0  0  0  0  0  0  0  0  0  0  0  0
   -4.7960    1.4000   -1.8850 O   0  0  0  0  0  0  0  0  0  0  0  0
   -3.0660    1.8600   -0.4670 N   0  0  0  0  0  0  0  0  0  0  0  0
   -3.6360    3.1260   -0.1580 C   0  0  0  0  0  0  0  0  0  0  0  0
   -4.8220    3.4280   -0.4410 O   0  0  0  0  0  0  0  0  0  0  0  0
   -2.8930    4.1240    0.4900 O   0  0  0  0  0  0  0  0  0  0  0  0
   -3.4280    5.3160    0.7820 O   0  0  0  0  0  0  0  0  0  0  0  0
   -1.6880    1.5590   -0.1190 C   0  0  0  0  0  0  0  0  0  0  0  0
   -1.0410    0.6910   -1.1340 C   0  0  0  0  0  0  0  0  0  0  0  0
   -1.3110    0.9600   -2.3490 O   0  0  0  0  0  0  0  0  0  0  0  0
   -0.1770   -0.3720   -0.8400 N   0  0  0  0  0  0  0  0  0  0  0  0
  1  2  1  0
  2  3  1  0
  2  6  1  0
  3  4  1  0
  3  5  2  0
  6  7  2  0
  6  8  1  0
  8  9  2  0
 10  8  1  6
 10 11  1  0
 10 30  1  0
 11 12  1  0
 12 13  1  0
 13 14  1  0
 14 15  1  1
 14 18  1  0
 15 16  2  0
 15 17  1  0
 18 19  1  0
 19 20  1  0
 20 21  2  0
 20 22  1  0
 22 23  1  0
 22 27  1  0
 23 24  2  0
 23 25  1  0
 25 26  1  0
 27 28  1  0
 28 29  2  0
 28 30  1  0
M  END
