
     RDKit          3D

 29 30  0  0  0  0  0  0  0  0999 V2000
   -2.5800    5.1670   -0.5120 C   0  0  0  0  0  0  0  0  0  0  0  0
   -2.0480    3.8640   -0.0600 C   0  0  0  0  0  0  0  0  0  0  0  0
   -2.1110    3.5630    1.3150 N   0  0  0  0  0  0  0  0  0  0  0  0
   -1.5300    3.0040   -0.8970 N   0  0  0  0  0  0  0  0  0  0  0  0
   -1.0300    1.7490   -0.3750 C   0  0  0  0  0  0  0  0  0  0  0  0
   -1.6840    0.6550   -0.5310 N   0  0  0  0  0  0  0  0  0  0  0  0
   -1.2020   -0.5970   -0.0250 C   0  0  0  0  0  0  0  0  0  0  0  0
   -0.0220   -0.6670    0.6350 C   0  0  0  0  0  0  0  0  0  0  0  0
    0.3600   -1.8660    1.1650 C   0  0  0  0  0  0  0  0  0  0  0  0
    1.4380   -1.9920    1.7920 O   0  0  0  0  0  0  0  0  0  0  0  0
   -0.4280   -2.9460    1.0240 N   0  0  0  0  0  0  0  0  0  0  0  0
   -0.0170   -4.1310    1.5660 O   0  0  0  0  0  0  0  0  0  0  0  0
   -1.6200   -2.8970    0.3600 C   0  0  0  0  0  0  0  0  0  0  0  0
   -2.2650   -3.9720    0.2930 O   0  0  0  0  0  0  0  0  0  0  0  0
   -1.9920   -1.7240   -0.1560 N   0  0  0  0  0  0  0  0  0  0  0  0
   -3.1930   -1.5820   -0.8510 C   0  0  0  0  0  0  0  0  0  0  0  0
   -3.4630   -0.3850   -1.3200 O   0  0  0  0  0  0  0  0  0  0  0  0
   -4.2740   -2.4880   -1.1980 C   0  0  0  0  0  0  0  0  0  0  0  0
   -4.2660   -3.7800   -0.8440 O   0  0  0  0  0  0  0  0  0  0  0  0
   -5.2780   -4.4910   -1.2060 O   0  0  0  0  0  0  0  0  0  0  0  0
    0.8470    0.5420    0.7190 C   0  0  1  0  0  0  0  0  0  0  0  0
    2.0430    0.4110   -0.2100 C   0  0  0  0  0  0  0  0  0  0  0  0
    2.8030   -0.6770    0.0810 O   0  0  0  0  0  0  0  0  0  0  0  0
    3.8940   -0.8480   -0.7300 C   0  0  0  0  0  0  0  0  0  0  0  0
    4.8680    0.3130   -0.6850 C   0  0  0  0  0  0  0  0  0  0  0  0
    5.3370    0.4800    0.6110 O   0  0  0  0  0  0  0  0  0  0  0  0
    6.1860    1.4820    0.6820 O   0  0  0  0  0  0  0  0  0  0  0  0
    7.1820    1.1240    1.4760 O   0  0  0  0  0  0  0  0  0  0  0  0
    0.1630    1.7080    0.3050 O   0  0  0  0  0  0  0  0  0  0  0  0
  1  2  1  0
  2  3  1  0
  2  4  2  3
  4  5  1  0
  5  6  2  0
  5 29  1  0
  6  7  1  0
  7  8  2  0
  7 15  1  0
  8  9  1  0
  8 21  1  0
  9 10  2  0
  9 11  1  0
 11 12  1  0
 11 13  1  0
 13 14  2  0
 13 15  1  0
 15 16  1  0
 16 17  2  0
 16 18  1  0
 18 19  1  0
 19 20  1  0
 21 22  1  6
 21 29  1  0
 22 23  1  0
 23 24  1  0
 24 25  1  0
 25 26  1  0
 26 27  1  0
 27 28  1  0
M  END
