
     RDKit          3D

 30 31  0  0  0  0  0  0  0  0999 V2000
   -0.9400   -0.2160   -2.4450 C   0  0  0  0  0  0  0  0  0  0  0  0
   -0.4320    0.3320   -1.1010 C   0  0  2  0  0  0  0  0  0  0  0  0
   -1.2480    0.0800    0.0400 C   0  0  0  0  0  0  0  0  0  0  0  0
   -1.1750    0.3040    1.1780 O   0  0  0  0  0  0  0  0  0  0  0  0
   -2.7220   -0.7720   -0.3600 N   0  0  0  0  0  0  0  0  0  0  0  0
   -3.2620   -0.7520    0.8970 C   0  0  0  0  0  0  0  0  0  0  0  0
   -2.7350   -0.5420    2.0020 O   0  0  0  0  0  0  0  0  0  0  0  0
   -4.6110   -0.9670    1.1000 N   0  0  0  0  0  0  0  0  0  0  0  0
   -5.8810   -1.1830    1.0640 C   0  0  0  0  0  0  0  0  0  0  0  0
   -6.2670   -0.9220    2.3300 O   0  0  0  0  0  0  0  0  0  0  0  0
   -6.9070   -1.5510    0.3080 O   0  0  0  0  0  0  0  0  0  0  0  0
   -8.1520   -1.6590    0.7180 O   0  0  0  0  0  0  0  0  0  0  0  0
   -8.3830   -1.2190    1.9300 O   0  0  0  0  0  0  0  0  0  0  0  0
   -9.5620   -0.6390    1.9920 O   0  0  0  0  0  0  0  0  0  0  0  0
   -0.4600    1.8890   -1.4040 C   0  0  0  0  0  0  0  0  0  0  0  0
    0.7480    2.3820   -1.7330 O   0  0  0  0  0  0  0  0  0  0  0  0
    1.5650    1.6740   -2.5660 C   0  0  0  0  0  0  0  0  0  0  0  0
    1.7550    0.2440   -2.1410 C   0  0  0  0  0  0  0  0  0  0  0  0
    0.9470    0.0690   -0.9460 N   0  0  0  0  0  0  0  0  0  0  0  0
    1.6040   -0.3240    0.2180 C   0  0  0  0  0  0  0  0  0  0  0  0
    1.0890   -0.5790    1.3280 O   0  0  0  0  0  0  0  0  0  0  0  0
    3.0120   -0.4690    0.2290 O   0  0  0  0  0  0  0  0  0  0  0  0
    3.7700   -0.8570    1.3410 C   0  0  0  0  0  0  0  0  0  0  0  0
    5.2240   -0.8040    0.8730 C   0  0  2  0  0  0  0  0  0  0  0  0
    6.1410   -1.1510    1.8610 O   0  0  0  0  0  0  0  0  0  0  0  0
    6.6820    0.0150    2.3630 C   0  0  0  0  0  0  0  0  0  0  0  0
    7.3790    0.1160    3.4200 O   0  0  0  0  0  0  0  0  0  0  0  0
    6.3490    1.1230    1.5220 N   0  0  0  0  0  0  0  0  0  0  0  0
    5.5680    0.5860    0.4620 C   0  0  0  0  0  0  0  0  0  0  0  0
    5.2470    1.1660   -0.5860 O   0  0  0  0  0  0  0  0  0  0  0  0
  2  1  1  6
  2  3  1  0
  2 15  1  0
  2 19  1  0
  3  4  2  0
  3  5  1  0
  5  6  1  0
  6  7  2  0
  6  8  1  0
  8  9  1  0
  9 10  2  0
  9 11  1  0
 11 12  1  0
 12 13  1  0
 13 14  1  0
 15 16  1  0
 16 17  1  0
 17 18  1  0
 18 19  1  0
 19 20  1  0
 20 21  2  0
 20 22  1  0
 22 23  1  0
 24 23  1  1
 24 25  1  0
 24 29  1  0
 25 26  1  0
 26 27  2  0
 26 28  1  0
 28 29  1  0
 29 30  2  0
M  END
