
     RDKit          3D

 18 19  0  0  0  0  0  0  0  0999 V2000
    4.7500    1.1180    0.5230 C   0  0  0  0  0  0  0  0  0  0  0  0
    3.3620    1.3440    0.2900 O   0  0  0  0  0  0  0  0  0  0  0  0
    2.4690    0.2830    0.3140 C   0  0  0  0  0  0  0  0  0  0  0  0
    2.8450   -0.8680    0.5340 O   0  0  0  0  0  0  0  0  0  0  0  0
    1.0150    0.5890    0.0600 C   0  0  0  0  0  0  0  0  0  0  0  0
    0.3470    2.1720   -0.2640 S   0  0  0  0  0  0  0  0  0  0  0  0
   -1.2690    1.6720   -0.4250 C   0  0  0  0  0  0  0  0  0  0  0  0
   -2.3800    2.5800   -0.7170 N   0  0  0  0  0  0  0  0  0  0  0  0
   -2.1270    3.9670   -0.8800 C   0  0  0  0  0  0  0  0  0  0  0  0
   -0.9480    4.3840   -0.7700 O   0  0  0  0  0  0  0  0  0  0  0  0
   -1.2440    0.3470   -0.2310 C   0  0  0  0  0  0  0  0  0  0  0  0
   -2.3640   -0.5040   -0.2700 C   0  0  0  0  0  0  0  0  0  0  0  0
   -3.5230   -0.0470   -0.5030 O   0  0  0  0  0  0  0  0  0  0  0  0
   -2.3140   -1.8120   -0.0740 N   0  0  0  0  0  0  0  0  0  0  0  0
   -1.1390   -2.3980    0.1800 C   0  0  0  0  0  0  0  0  0  0  0  0
   -1.0680   -3.8850    0.4050 C   0  0  0  0  0  0  0  0  0  0  0  0
   -0.0220   -1.6080    0.2270 C   0  0  0  0  0  0  0  0  0  0  0  0
   -0.0430   -0.2180    0.0240 C   0  0  0  0  0  0  0  0  0  0  0  0
  1  2  1  0
  2  3  1  0
  3  4  2  0
  3  5  1  0
  5  6  1  0
  5 18  2  0
  6  7  1  0
  7  8  1  0
  7 11  2  0
  8  9  1  0
  9 10  2  0
 11 12  1  0
 11 18  1  0
 12 13  2  0
 12 14  1  0
 14 15  1  0
 15 16  1  0
 15 17  2  0
 17 18  1  0
M  END
