
     RDKit          3D

 20 19  0  0  0  0  0  0  0  0999 V2000
    0.0240   -1.1930    2.1810 C   0  0  0  0  0  0  0  0  0  0  0  0
   -0.5300   -1.2700    0.8050 C   0  0  2  0  0  0  0  0  0  0  0  0
    0.1440   -2.1660   -0.0460 O   0  0  0  0  0  0  0  0  0  0  0  0
   -0.4460   -3.2620   -0.6410 C   0  0  0  0  0  0  0  0  0  0  0  0
    0.2890   -4.1230   -1.4860 N   0  0  0  0  0  0  0  0  0  0  0  0
   -1.6480   -3.4790   -0.4150 O   0  0  0  0  0  0  0  0  0  0  0  0
   -0.5370    0.0810    0.1020 C   0  0  1  0  0  0  0  0  0  0  0  0
   -1.1840    0.0060   -1.1150 O   0  0  0  0  0  0  0  0  0  0  0  0
   -1.2020    1.0840    1.0160 C   0  0  0  0  0  0  0  0  0  0  0  0
   -2.4660    0.8540    1.3910 O   0  0  0  0  0  0  0  0  0  0  0  0
   -3.3920    0.7480    0.4220 C   0  0  0  0  0  0  0  0  0  0  0  0
   -3.6400    1.9020   -0.4620 C   0  0  0  0  0  0  0  0  0  0  0  0
   -3.0880    3.1900   -0.3790 N   0  0  0  0  0  0  0  0  0  0  0  0
   -4.4540    1.6580   -1.3860 O   0  0  0  0  0  0  0  0  0  0  0  0
    0.8650    0.5880   -0.1380 C   0  0  0  0  0  0  0  0  0  0  0  0
    1.8510   -0.5000   -1.1550 S   0  0  0  0  0  0  0  0  0  0  0  0
    3.4970    0.2370   -1.3540 C   0  0  0  0  0  0  0  0  0  0  0  0
    4.2270    0.2810   -0.0580 C   0  0  0  0  0  0  0  0  0  0  0  0
    5.5290    0.8290   -0.0490 N   0  0  0  0  0  0  0  0  0  0  0  0
    3.7600   -0.1360    1.0220 O   0  0  0  0  0  0  0  0  0  0  0  0
  2  1  1  1
  2  3  1  0
  2  7  1  0
  3  4  1  0
  4  5  1  0
  4  6  2  0
  7  8  1  6
  7  9  1  0
  7 15  1  0
  9 10  1  0
 10 11  1  0
 11 12  1  0
 12 13  1  0
 12 14  2  0
 15 16  1  0
 16 17  1  0
 17 18  1  0
 18 19  1  0
 18 20  2  0
M  CHG  1  13   1
M  END
