
     RDKit          3D

 20 19  0  0  0  0  0  0  0  0999 V2000
   -1.4210   -1.9180   -1.0100 N   0  0  0  0  0  0  0  0  0  0  0  0
   -1.6440   -1.6090    0.3620 C   0  0  0  0  0  0  0  0  0  0  0  0
   -2.6520   -0.5620    0.6380 C   0  0  0  0  0  0  0  0  0  0  0  0
   -2.3720    0.7670    0.0270 C   0  0  1  0  0  0  0  0  0  0  0  0
   -3.4060    1.8240    0.3340 C   0  0  0  0  0  0  0  0  0  0  0  0
   -4.7680    1.4240   -0.1640 C   0  0  0  0  0  0  0  0  0  0  0  0
   -5.8900    2.7620    0.2500 S   0  0  1  0  0  0  0  0  0  0  0  0
   -5.5440    3.3790    1.5590 O   0  0  0  0  0  0  0  0  0  0  0  0
   -5.6490    3.8400   -0.7950 O   0  0  0  0  0  0  0  0  0  0  0  0
   -1.0270    1.3490    0.3340 C   0  0  0  0  0  0  0  0  0  0  0  0
    0.0040    0.4710   -0.1590 O   0  0  0  0  0  0  0  0  0  0  0  0
    1.3030    0.6710    0.0080 C   0  0  0  0  0  0  0  0  0  0  0  0
    1.8930    1.5060    0.5410 O   0  0  0  0  0  0  0  0  0  0  0  0
    2.2870   -0.5770   -0.7220 N   0  0  0  0  0  0  0  0  0  0  0  0
    3.4910   -0.1240   -0.3300 C   0  0  0  0  0  0  0  0  0  0  0  0
    3.9080    0.8010    0.3290 O   0  0  0  0  0  0  0  0  0  0  0  0
    4.5570   -1.0650   -0.8980 N   0  0  0  0  0  0  0  0  0  0  0  0
    5.8900   -0.7400   -0.5950 C   0  0  0  0  0  0  0  0  0  0  0  0
    6.8160   -1.7710   -1.2310 C   0  0  0  0  0  0  0  0  0  0  0  0
    6.5100   -3.0080   -0.7290 O   0  0  0  0  0  0  0  0  0  0  0  0
  1  2  1  0
  2  3  1  0
  4  3  1  1
  4  5  1  0
  4 10  1  0
  5  6  1  0
  7  6  1  6
  7  8  2  0
  7  9  2  0
 10 11  1  0
 11 12  1  0
 12 13  2  0
 12 14  1  0
 14 15  1  0
 15 16  2  0
 15 17  1  0
 17 18  1  0
 18 19  1  0
 19 20  1  0
M  CHG  1   1   1
M  END
