
     RDKit          3D

 18 19  0  0  0  0  0  0  0  0999 V2000
   -2.4830    0.1020   -0.8400 O   0  0  0  0  0  0  0  0  0  0  0  0
   -2.0180    0.3390    0.3160 C   0  0  0  0  0  0  0  0  0  0  0  0
   -2.9320    0.6940    1.4430 C   0  0  0  0  0  0  0  0  0  0  0  0
   -4.3290    0.7000    0.9390 C   0  0  0  0  0  0  0  0  0  0  0  0
   -5.3130    1.5680    0.8380 C   0  0  0  0  0  0  0  0  0  0  0  0
   -6.1900    0.5750    0.2260 C   0  0  0  0  0  0  0  0  0  0  0  0
   -5.1900   -0.3020    0.3300 C   0  0  0  0  0  0  0  0  0  0  0  0
   -0.6110    0.2610    0.5260 N   0  0  0  0  0  0  0  0  0  0  0  0
    0.2780   -0.0730   -0.5200 C   0  0  0  0  0  0  0  0  0  0  0  0
   -0.2550   -0.3840   -2.0080 S   0  0  0  0  0  0  0  0  0  0  0  0
    1.6730   -0.1310   -0.2350 N   0  0  0  0  0  0  0  0  0  0  0  0
    2.6400   -0.4580   -1.2240 C   0  0  0  0  0  0  0  0  0  0  0  0
    2.2150   -0.6990   -2.3820 O   0  0  0  0  0  0  0  0  0  0  0  0
    4.0760   -0.5140   -0.9140 C   0  0  0  0  0  0  0  0  0  0  0  0
    5.0290   -0.8100   -1.7760 C   0  0  0  0  0  0  0  0  0  0  0  0
    6.2680   -0.7730   -1.1560 O   0  0  0  0  0  0  0  0  0  0  0  0
    6.0900   -0.5150    0.2340 C   0  0  0  0  0  0  0  0  0  0  0  0
    4.6970   -0.2770    0.3000 O   0  0  0  0  0  0  0  0  0  0  0  0
  1  2  2  0
  2  3  1  0
  2  8  1  0
  3  4  1  0
  4  5  2  0
  4  7  1  0
  5  6  1  0
  6  7  2  0
  8  9  1  0
  9 10  2  0
  9 11  1  0
 11 12  1  0
 12 13  2  0
 12 14  1  0
 14 15  2  0
 14 18  1  0
 15 16  1  0
 16 17  1  0
 17 18  1  0
M  END
