
     RDKit          3D

 20 19  0  0  0  0  0  0  0  0999 V2000
    1.4620    2.0800    3.0190 C   0  0  0  0  0  0  0  0  0  0  0  0
    1.1970    1.9850    1.6660 O   0  0  0  0  0  0  0  0  0  0  0  0
    0.4100    0.9290    1.3090 C   0  0  1  0  0  0  0  0  0  0  0  0
   -0.9000    1.3240    0.6750 C   0  0  0  0  0  0  0  0  0  0  0  0
   -1.5740    0.1190    0.3750 O   0  0  0  0  0  0  0  0  0  0  0  0
   -2.7930    0.3410   -0.2120 C   0  0  2  0  0  0  0  0  0  0  0  0
   -3.9450   -0.2410    0.5810 C   0  0  0  0  0  0  0  0  0  0  0  0
   -3.8290   -1.6680    0.7400 N   0  0  0  0  0  0  0  0  0  0  0  0
   -2.7750   -0.1980   -1.5880 C   0  0  0  0  0  0  0  0  0  0  0  0
   -3.9190   -0.1110   -2.4540 N   0  0  0  0  0  0  0  0  0  0  0  0
   -1.7380   -0.7500   -2.0270 O   0  0  0  0  0  0  0  0  0  0  0  0
    1.1440   -0.0540    0.4340 C   0  0  0  0  0  0  0  0  0  0  0  0
    0.5790   -1.0920    0.0060 O   0  0  0  0  0  0  0  0  0  0  0  0
    2.5000    0.1950    0.0850 N   0  0  0  0  0  0  0  0  0  0  0  0
    3.2420   -0.7390   -0.7630 C   0  0  1  0  0  0  0  0  0  0  0  0
    4.6380   -0.2140   -0.9570 C   0  0  0  0  0  0  0  0  0  0  0  0
    3.3760   -2.3660    0.0640 S   0  0  0  0  0  0  0  0  0  0  0  0
    2.5680   -0.8920   -2.0680 C   0  0  0  0  0  0  0  0  0  0  0  0
    1.5090   -0.2610   -2.3150 O   0  0  0  0  0  0  0  0  0  0  0  0
    3.1160   -1.7340   -3.0080 O   0  0  0  0  0  0  0  0  0  0  0  0
  1  2  1  0
  2  3  1  0
  3  4  1  6
  3 12  1  0
  4  5  1  0
  5  6  1  0
  6  7  1  1
  6  9  1  0
  7  8  1  0
  9 10  1  0
  9 11  2  0
 12 13  2  0
 12 14  1  0
 14 15  1  0
 15 16  1  6
 15 17  1  0
 15 18  1  0
 18 19  2  0
 18 20  1  0
M  CHG  1   8   1
M  END
