
     RDKit          3D

 18 19  0  0  0  0  0  0  0  0999 V2000
    3.1330   -2.0540    1.6860 C   0  0  0  0  0  0  0  0  0  0  0  0
    2.7560   -0.8070    1.1560 O   0  0  0  0  0  0  0  0  0  0  0  0
    1.7680   -0.6450    0.1990 C   0  0  0  0  0  0  0  0  0  0  0  0
    1.1610   -1.6440   -0.2360 O   0  0  0  0  0  0  0  0  0  0  0  0
    1.4870    0.7110   -0.2550 C   0  0  0  0  0  0  0  0  0  0  0  0
    2.1460    1.7820    0.2200 N   0  0  0  0  0  0  0  0  0  0  0  0
    1.8250    2.9920   -0.2520 C   0  0  0  0  0  0  0  0  0  0  0  0
    2.4550    4.0040    0.2030 O   0  0  0  0  0  0  0  0  0  0  0  0
    0.8800    3.2130   -1.1760 N   0  0  0  0  0  0  0  0  0  0  0  0
    0.2180    2.1440   -1.6550 C   0  0  0  0  0  0  0  0  0  0  0  0
   -0.6910    2.2650   -2.5300 O   0  0  0  0  0  0  0  0  0  0  0  0
    0.4900    0.8640   -1.2190 C   0  0  0  0  0  0  0  0  0  0  0  0
   -0.3840   -0.5630   -1.8470 S   0  0  0  0  0  0  0  0  0  0  0  0
   -1.8270   -0.8500   -0.8000 C   0  0  0  0  0  0  0  0  0  0  0  0
   -2.7110   -1.8170   -0.9530 C   0  0  0  0  0  0  0  0  0  0  0  0
   -3.7320   -1.7170    0.0920 C   0  0  0  0  0  0  0  0  0  0  0  0
   -3.3300   -0.5470    0.8950 C   0  0  0  0  0  0  0  0  0  0  0  0
   -2.2280   -0.0660    0.3590 C   0  0  0  0  0  0  0  0  0  0  0  0
  1  2  1  0
  2  3  1  0
  3  4  2  0
  3  5  1  0
  5  6  1  0
  5 12  2  0
  6  7  1  0
  7  8  2  0
  7  9  1  0
  9 10  1  0
 10 11  2  0
 10 12  1  0
 12 13  1  0
 13 14  1  0
 14 15  2  0
 14 18  1  0
 15 16  1  0
 16 17  1  0
 17 18  2  0
M  END
