
     RDKit          3D

 22 23  0  0  0  0  0  0  0  0999 V2000
   -7.0960   -0.4430    1.1950 C   0  0  0  0  0  0  0  0  0  0  0  0
   -6.4940   -0.7480   -0.1980 C   0  0  0  0  0  0  0  0  0  0  0  0
   -5.3880    0.1830   -0.3640 C   0  0  0  0  0  0  0  0  0  0  0  0
   -4.1140   -0.0140   -0.5790 C   0  0  0  0  0  0  0  0  0  0  0  0
   -3.2450    1.0940   -0.7020 O   0  0  0  0  0  0  0  0  0  0  0  0
   -1.8870    0.9560   -0.9300 C   0  0  0  0  0  0  0  0  0  0  0  0
   -1.0480    2.1820   -1.0410 C   0  0  0  0  0  0  0  0  0  0  0  0
    0.3460    1.9440   -1.1950 N   0  0  0  0  0  0  0  0  0  0  0  0
    1.1480    1.3110   -0.2150 C   0  0  0  0  0  0  0  0  0  0  0  0
    0.6440    0.9270    0.8960 O   0  0  0  0  0  0  0  0  0  0  0  0
    2.5450    1.0690   -0.4070 N   0  0  0  0  0  0  0  0  0  0  0  0
    3.3220    0.4160    0.6310 C   0  0  2  0  0  0  0  0  0  0  0  0
    4.4770    1.3070    1.0420 C   0  0  0  0  0  0  0  0  0  0  0  0
    5.6880    0.3980    1.0200 C   0  0  0  0  0  0  0  0  0  0  0  0
    5.3600   -0.5370   -0.1170 C   0  0  1  0  0  0  0  0  0  0  0  0
    6.2440   -1.7440   -0.1160 C   0  0  0  0  0  0  0  0  0  0  0  0
    3.9320   -0.8570    0.1490 C   0  0  0  0  0  0  0  0  0  0  0  0
    3.3180   -1.8870    0.0310 O   0  0  0  0  0  0  0  0  0  0  0  0
   -1.3060   -0.2200   -1.0500 C   0  0  0  0  0  0  0  0  0  0  0  0
   -2.1530   -1.3970   -0.9320 C   0  0  0  0  0  0  0  0  0  0  0  0
   -3.4790   -1.3010   -0.7100 C   0  0  0  0  0  0  0  0  0  0  0  0
   -4.2190   -2.4750   -0.6100 O   0  0  0  0  0  0  0  0  0  0  0  0
  1  2  1  0
  2  3  1  0
  3  4  2  3
  4  5  1  0
  4 21  1  0
  5  6  1  0
  6  7  1  0
  6 19  2  0
  7  8  1  0
  8  9  1  0
  9 10  2  0
  9 11  1  0
 12 11  1  6
 12 13  1  0
 12 17  1  0
 13 14  1  0
 14 15  1  0
 15 16  1  1
 15 17  1  0
 17 18  2  0
 19 20  1  0
 20 21  2  0
 21 22  1  0
M  END
