
     RDKit          3D

 19 19  0  0  0  0  0  0  0  0999 V2000
   -1.3990    2.3380    0.7650 C   0  0  0  0  0  0  0  0  0  0  0  0
   -2.4370    1.6180   -0.0230 C   0  0  0  0  0  0  0  0  0  0  0  0
   -3.3300    2.4670   -0.5670 C   0  0  0  0  0  0  0  0  0  0  0  0
   -4.7580    1.9890   -1.5790 S   0  0  0  0  0  0  0  0  0  0  0  0
   -5.5550    0.7560   -0.4740 C   0  0  0  0  0  0  0  0  0  0  0  0
   -4.9200   -0.2590    0.0920 C   0  0  0  0  0  0  0  0  0  0  0  0
   -3.5190   -0.6200   -0.0220 C   0  0  0  0  0  0  0  0  0  0  0  0
   -3.2660   -2.0900   -0.0470 C   0  0  0  0  0  0  0  0  0  0  0  0
   -2.4230    0.1720   -0.0820 C   0  0  0  0  0  0  0  0  0  0  0  0
   -1.2040   -0.4900   -0.2080 N   0  0  0  0  0  0  0  0  0  0  0  0
    0.1090   -0.0870   -0.3580 C   0  0  0  0  0  0  0  0  0  0  0  0
    0.4070    1.0810   -0.4930 O   0  0  0  0  0  0  0  0  0  0  0  0
    1.2240   -1.0190   -0.3670 N   0  0  0  0  0  0  0  0  0  0  0  0
    2.5740   -0.5070   -0.5320 C   0  0  0  0  0  0  0  0  0  0  0  0
    3.6050   -1.5710   -0.5200 C   0  0  0  0  0  0  0  0  0  0  0  0
    4.9060   -0.9930   -0.6940 N   0  0  0  0  0  0  0  0  0  0  0  0
    5.4250   -0.0670    0.2310 C   0  0  0  0  0  0  0  0  0  0  0  0
    6.7280    0.5240    0.0650 N   0  0  0  0  0  0  0  0  0  0  0  0
    4.7930    0.3000    1.2480 O   0  0  0  0  0  0  0  0  0  0  0  0
  1  2  1  0
  2  3  2  0
  2  9  1  0
  3  4  1  0
  4  5  1  0
  5  6  2  0
  6  7  1  0
  7  8  1  0
  7  9  2  0
  9 10  1  0
 10 11  1  0
 11 12  2  0
 11 13  1  0
 13 14  1  0
 14 15  1  0
 15 16  1  0
 16 17  1  0
 17 18  1  0
 17 19  2  0
M  END
