
     RDKit          3D

 22 23  0  0  0  0  0  0  0  0999 V2000
   -5.1140   -0.4590    1.1560 C   0  0  0  0  0  0  0  0  0  0  0  0
   -3.6500   -0.4550    0.7290 C   0  0  1  0  0  0  0  0  0  0  0  0
   -2.9960   -1.1850    1.7530 O   0  0  0  0  0  0  0  0  0  0  0  0
   -3.4360   -1.1960   -0.5420 C   0  0  0  0  0  0  0  0  0  0  0  0
   -4.1860   -0.6710   -1.7320 C   0  0  0  0  0  0  0  0  0  0  0  0
   -3.8620    0.6230   -2.0420 O   0  0  0  0  0  0  0  0  0  0  0  0
   -3.0670    0.9110    0.7460 C   0  0  0  0  0  0  0  0  0  0  0  0
   -1.6160    0.7870    0.5140 N   0  0  0  0  0  0  0  0  0  0  0  0
   -0.7890    1.9300    0.4650 C   0  0  0  0  0  0  0  0  0  0  0  0
   -1.3540    3.0620    0.6290 O   0  0  0  0  0  0  0  0  0  0  0  0
    0.6480    1.8280    0.2370 C   0  0  0  0  0  0  0  0  0  0  0  0
    1.3000    0.7050    0.0590 C   0  0  0  0  0  0  0  0  0  0  0  0
    2.7110    0.6740   -0.1600 C   0  0  0  0  0  0  0  0  0  0  0  0
    3.3150   -0.4910   -0.3330 C   0  0  0  0  0  0  0  0  0  0  0  0
    2.8340   -1.8130   -0.3500 O   0  0  0  0  0  0  0  0  0  0  0  0
    3.8970   -2.7060   -0.5750 C   0  0  0  0  0  0  0  0  0  0  0  0
    5.0950   -1.8660   -0.7020 C   0  0  0  0  0  0  0  0  0  0  0  0
    4.7500   -0.6110   -0.5620 C   0  0  0  0  0  0  0  0  0  0  0  0
    5.5060    0.6330   -0.5930 C   0  0  0  0  0  0  0  0  0  0  0  0
    6.7840    0.5760   -0.7940 N   0  0  0  0  0  0  0  0  0  0  0  0
    4.8190    1.8780   -0.4020 C   0  0  0  0  0  0  0  0  0  0  0  0
    3.4980    1.8830   -0.1990 C   0  0  0  0  0  0  0  0  0  0  0  0
  2  1  1  1
  2  3  1  0
  2  4  1  0
  2  7  1  0
  4  5  1  0
  5  6  1  0
  7  8  1  0
  8  9  1  0
  9 10  2  0
  9 11  1  0
 11 12  2  3
 12 13  1  0
 13 14  2  0
 13 22  1  0
 14 15  1  0
 14 18  1  0
 15 16  1  0
 16 17  1  0
 17 18  2  0
 18 19  1  0
 19 20  2  0
 19 21  1  0
 21 22  2  0
M  END
