
     RDKit          3D

 22 23  0  0  0  0  0  0  0  0999 V2000
    6.9060    0.5650    2.1120 C   0  0  0  0  0  0  0  0  0  0  0  0
    5.9310    0.2410    1.2840 C   0  0  0  0  0  0  0  0  0  0  0  0
    4.7370    1.0870    0.9080 C   0  0  0  0  0  0  0  0  0  0  0  0
    3.8390    0.0980    0.2430 C   0  0  1  0  0  0  0  0  0  0  0  0
    2.8620    0.6840   -0.6180 N   0  0  0  0  0  0  0  0  0  0  0  0
    1.4840    0.3650   -0.4210 C   0  0  0  0  0  0  0  0  0  0  0  0
    1.1650   -0.4240    0.5040 O   0  0  0  0  0  0  0  0  0  0  0  0
    0.4590    0.9040   -1.2320 N   0  0  0  0  0  0  0  0  0  0  0  0
   -0.9700    0.5770   -1.0210 C   0  0  0  0  0  0  0  0  0  0  0  0
   -1.4330    0.9960    0.3160 C   0  0  0  0  0  0  0  0  0  0  0  0
   -2.8490    0.6860    0.5720 C   0  0  0  0  0  0  0  0  0  0  0  0
   -3.6650    0.0790   -0.2390 C   0  0  0  0  0  0  0  0  0  0  0  0
   -3.2410   -0.3670   -1.5150 O   0  0  0  0  0  0  0  0  0  0  0  0
   -3.9650   -1.4400   -2.0750 C   0  0  0  0  0  0  0  0  0  0  0  0
   -5.4180   -0.9510   -2.1410 C   0  0  0  0  0  0  0  0  0  0  0  0
   -5.8690   -0.8360   -0.8100 O   0  0  0  0  0  0  0  0  0  0  0  0
   -5.0490   -0.1720    0.1240 C   0  0  0  0  0  0  0  0  0  0  0  0
   -5.5520    0.1940    1.2760 C   0  0  0  0  0  0  0  0  0  0  0  0
   -7.0200   -0.1420    1.5060 C   0  0  0  0  0  0  0  0  0  0  0  0
    4.8550   -0.7420   -0.5420 C   0  0  0  0  0  0  0  0  0  0  0  0
    5.8460   -1.0580    0.5570 C   0  0  1  0  0  0  0  0  0  0  0  0
    7.0630   -1.4800    0.0700 O   0  0  0  0  0  0  0  0  0  0  0  0
  1  2  2  0
  2  3  1  0
  2 21  1  0
  3  4  1  0
  4  5  1  6
  4 20  1  0
  5  6  1  0
  6  7  2  0
  6  8  1  0
  8  9  1  0
  9 10  1  0
 10 11  1  0
 11 12  2  3
 12 13  1  0
 12 17  1  0
 13 14  1  0
 14 15  1  0
 15 16  1  0
 16 17  1  0
 17 18  2  3
 18 19  1  0
 20 21  1  0
 21 22  1  6
M  END
