
     RDKit          3D

  6  6  0  0  0  0  0  0  0  0999 V2000
   -1.6750   -0.2360    0.1030 C   0  0  0  0  0  0  0  0  0  0  0  0
   -0.2370    0.0470    0.0310 C   0  0  0  0  0  0  0  0  0  0  0  0
    0.3550    1.2800    0.1520 C   0  0  0  0  0  0  0  0  0  0  0  0
    1.7040    1.1100    0.0250 N   0  0  0  0  0  0  0  0  0  0  0  0
    1.9480   -0.1760   -0.1660 C   0  0  0  0  0  0  0  0  0  0  0  0
    0.7740   -0.8150   -0.1620 N   0  0  0  0  0  0  0  0  0  0  0  0
  1  2  1  0
  2  3  2  0
  2  6  1  0
  3  4  1  0
  4  5  2  0
  5  6  1  0
M  END
