
     RDKit          3D

 22 24  0  0  0  0  0  0  0  0999 V2000
    0.4970   -3.1220   -0.2590 N   0  0  0  0  0  0  0  0  0  0  0  0
    1.3940   -2.0070   -0.0910 C   0  0  0  0  0  0  0  0  0  0  0  0
    2.5730   -2.3960   -0.2040 O   0  0  0  0  0  0  0  0  0  0  0  0
    1.0400   -0.6470    0.1560 C   0  0  0  0  0  0  0  0  0  0  0  0
    1.8560    0.3640    0.2260 C   0  0  0  0  0  0  0  0  0  0  0  0
    3.1870    0.8810    0.1600 C   0  0  0  0  0  0  0  0  0  0  0  0
    3.3620    2.2220    0.3660 C   0  0  0  0  0  0  0  0  0  0  0  0
    4.6100    2.9590    0.3480 C   0  0  0  0  0  0  0  0  0  0  0  0
    5.7180    2.1890    0.0520 O   0  0  0  0  0  0  0  0  0  0  0  0
    5.5990    0.8520   -0.1600 C   0  0  0  0  0  0  0  0  0  0  0  0
    4.4230    0.1840   -0.1210 C   0  0  0  0  0  0  0  0  0  0  0  0
    4.5130   -1.1500   -0.3620 O   0  0  0  0  0  0  0  0  0  0  0  0
   -0.4040   -0.2500    0.2740 C   0  0  0  0  0  0  0  0  0  0  0  0
   -0.4650    1.0830    0.2640 O   0  0  0  0  0  0  0  0  0  0  0  0
   -1.5830   -0.9040    0.3850 N   0  0  0  0  0  0  0  0  0  0  0  0
   -2.0980   -2.1980    0.6470 C   0  0  0  0  0  0  0  0  0  0  0  0
   -2.9690   -2.4760   -0.5930 C   0  0  0  0  0  0  0  0  0  0  0  0
   -3.3600   -1.0940   -1.0640 C   0  0  0  0  0  0  0  0  0  0  0  0
   -2.9160   -0.2220    0.1100 C   0  0  2  0  0  0  0  0  0  0  0  0
   -2.8020    1.1920   -0.2550 C   0  0  1  0  0  0  0  0  0  0  0  0
   -4.1800    1.8600   -0.3980 C   0  0  0  0  0  0  0  0  0  0  0  0
   -3.2800    2.2580    0.7340 C   0  0  0  0  0  0  0  0  0  0  0  0
  1  2  1  0
  2  3  2  0
  2  4  1  0
  4  5  2  3
  4 13  1  0
  5  6  1  0
  6  7  2  0
  6 11  1  0
  7  8  1  0
  8  9  1  0
  9 10  1  0
 10 11  2  0
 11 12  1  0
 13 14  2  0
 13 15  1  0
 15 16  1  0
 15 19  1  0
 16 17  1  0
 17 18  1  0
 19 18  1  6
 19 20  1  0
 20 21  1  6
 20 22  1  0
 21 22  1  0
M  END
