
     RDKit          3D

 26 27  0  0  0  0  0  0  0  0999 V2000
   -8.4410   -0.0860    0.5620 C   0  0  0  0  0  0  0  0  0  0  0  0
   -7.0420   -0.2720    0.1430 C   0  0  0  0  0  0  0  0  0  0  0  0
   -6.7340   -0.3850   -1.1070 C   0  0  0  0  0  0  0  0  0  0  0  0
   -5.3910   -0.5680   -1.5680 C   0  0  0  0  0  0  0  0  0  0  0  0
   -4.2860   -0.6490   -0.8330 C   0  0  0  0  0  0  0  0  0  0  0  0
   -3.0600   -0.8350   -1.5580 C   0  0  0  0  0  0  0  0  0  0  0  0
   -1.8510   -0.9530   -1.2240 C   0  0  0  0  0  0  0  0  0  0  0  0
   -1.0060   -0.9790   -0.0740 C   0  0  0  0  0  0  0  0  0  0  0  0
   -1.3930   -0.8620    1.1130 O   0  0  0  0  0  0  0  0  0  0  0  0
    0.4470   -1.1530   -0.1740 N   0  0  0  0  0  0  0  0  0  0  0  0
    1.3030   -1.1720    0.9730 C   0  0  0  0  0  0  0  0  0  0  0  0
    1.2860    0.1000    1.7570 C   0  0  0  0  0  0  0  0  0  0  0  0
    1.7310    1.2690    0.8930 C   0  0  2  0  0  0  0  0  0  0  0  0
    0.9300    1.4660   -0.2160 O   0  0  0  0  0  0  0  0  0  0  0  0
    3.1540    1.0900    0.5630 C   0  0  0  0  0  0  0  0  0  0  0  0
    4.1360    1.6270    1.3800 C   0  0  0  0  0  0  0  0  0  0  0  0
    5.4720    1.4870    1.0860 C   0  0  0  0  0  0  0  0  0  0  0  0
    5.8260    0.7970   -0.0460 C   0  0  0  0  0  0  0  0  0  0  0  0
    7.2320    0.6430   -0.3660 C   0  0  0  0  0  0  0  0  0  0  0  0
    8.1120    1.1320    0.3790 O   0  0  0  0  0  0  0  0  0  0  0  0
    7.6330   -0.0520   -1.5070 O   0  0  0  0  0  0  0  0  0  0  0  0
    8.9370   -0.1570   -1.7430 O   0  0  0  0  0  0  0  0  0  0  0  0
    4.8840    0.2420   -0.8930 C   0  0  0  0  0  0  0  0  0  0  0  0
    3.5400    0.4090   -0.5570 C   0  0  0  0  0  0  0  0  0  0  0  0
   -4.2180   -0.5660    0.6370 C   0  0  0  0  0  0  0  0  0  0  0  0
   -5.8240   -0.3330    1.4280 S   0  0  0  0  0  0  0  0  0  0  0  0
  1  2  1  0
  2  3  2  0
  2 26  1  0
  3  4  1  0
  4  5  2  0
  5  6  1  0
  5 25  1  0
  6  7  2  3
  7  8  1  0
  8  9  2  0
  8 10  1  0
 10 11  1  0
 11 12  1  0
 12 13  1  0
 13 14  1  6
 13 15  1  0
 15 16  2  0
 15 24  1  0
 16 17  1  0
 17 18  2  0
 18 19  1  0
 18 23  1  0
 19 20  2  0
 19 21  1  0
 21 22  1  0
 23 24  2  0
 25 26  1  0
M  END
