
     RDKit          3D

 26 27  0  0  0  0  0  0  0  0999 V2000
    5.0040    1.6580   -1.6370 C   0  0  0  0  0  0  0  0  0  0  0  0
    5.2250    0.2630   -1.1320 C   0  0  2  0  0  0  0  0  0  0  0  0
    4.7560    0.0840    0.2420 C   0  0  0  0  0  0  0  0  0  0  0  0
    3.2920    0.2590    0.5210 C   0  0  0  0  0  0  0  0  0  0  0  0
    2.4910    0.4830   -0.4590 C   0  0  0  0  0  0  0  0  0  0  0  0
    1.0710    0.6810   -0.4040 C   0  0  0  0  0  0  0  0  0  0  0  0
    0.3780    0.6590    0.7150 C   0  0  0  0  0  0  0  0  0  0  0  0
   -1.0520    0.8720    0.6460 C   0  0  0  0  0  0  0  0  0  0  0  0
   -1.8790   -0.2930    1.0110 C   0  0  2  0  0  0  0  0  0  0  0  0
   -3.3480    0.0370    0.9050 C   0  0  0  0  0  0  0  0  0  0  0  0
   -4.1000    0.0060    1.9100 O   0  0  0  0  0  0  0  0  0  0  0  0
   -3.9010    0.3830   -0.3100 O   0  0  0  0  0  0  0  0  0  0  0  0
   -5.2750    0.7050   -0.4710 C   0  0  1  0  0  0  0  0  0  0  0  0
   -5.6960    1.8810    0.3550 C   0  0  0  0  0  0  0  0  0  0  0  0
   -5.5080    0.9190   -1.9550 C   0  0  0  0  0  0  0  0  0  0  0  0
   -6.1140   -0.5170   -0.0810 C   0  0  0  0  0  0  0  0  0  0  0  0
   -1.6030   -0.9710    2.3180 C   0  0  0  0  0  0  0  0  0  0  0  0
   -2.3530   -2.2940    2.0570 C   0  0  0  0  0  0  0  0  0  0  0  0
   -2.3680   -2.4890    0.7090 O   0  0  0  0  0  0  0  0  0  0  0  0
   -1.6150   -1.5000    0.0860 C   0  0  0  0  0  0  0  0  0  0  0  0
    1.2150    0.4320    2.2460 S   0  0  0  0  0  0  0  0  0  0  0  0
    2.9440    0.1360    1.9770 C   0  0  0  0  0  0  0  0  0  0  0  0
    6.6550   -0.0820   -1.1580 N   0  0  0  0  0  0  0  0  0  0  0  0
    7.1100   -1.1550   -1.9610 C   0  0  0  0  0  0  0  0  0  0  0  0
    6.2460   -1.7970   -2.6470 O   0  0  0  0  0  0  0  0  0  0  0  0
    8.4570   -1.4980   -2.0000 O   0  0  0  0  0  0  0  0  0  0  0  0
  2  1  1  1
  2  3  1  0
  2 23  1  0
  3  4  1  0
  4  5  2  0
  4 22  1  0
  5  6  1  0
  6  7  2  0
  7  8  1  0
  7 21  1  0
  9  8  1  6
  9 10  1  0
  9 17  1  0
  9 20  1  0
 10 11  2  0
 10 12  1  0
 12 13  1  0
 13 14  1  1
 13 15  1  0
 13 16  1  0
 17 18  1  0
 18 19  1  0
 19 20  1  0
 21 22  1  0
 23 24  1  0
 24 25  2  0
 24 26  1  0
M  END
