
     RDKit          3D

 26 28  0  0  0  0  0  0  0  0999 V2000
   -6.1470    1.4760   -2.0470 O   0  0  0  0  0  0  0  0  0  0  0  0
   -5.2890    1.9100   -1.2530 C   0  0  0  0  0  0  0  0  0  0  0  0
   -4.7430    3.1660   -1.5750 O   0  0  0  0  0  0  0  0  0  0  0  0
   -4.8720    1.2220   -0.1050 N   0  0  0  0  0  0  0  0  0  0  0  0
   -5.3580   -0.0390    0.3090 C   0  0  0  0  0  0  0  0  0  0  0  0
   -6.4220   -0.7010   -0.2620 C   0  0  0  0  0  0  0  0  0  0  0  0
   -6.8930   -1.9250    0.2290 C   0  0  0  0  0  0  0  0  0  0  0  0
   -6.2570   -2.4690    1.3220 C   0  0  0  0  0  0  0  0  0  0  0  0
   -5.1770   -1.8160    1.9160 C   0  0  0  0  0  0  0  0  0  0  0  0
   -4.7350   -0.6240    1.4190 C   0  0  0  0  0  0  0  0  0  0  0  0
   -3.6700   -0.0180    2.0320 O   0  0  0  0  0  0  0  0  0  0  0  0
   -2.4850    0.1330    1.2950 C   0  0  0  0  0  0  0  0  0  0  0  0
   -2.2020   -0.2670    0.0070 C   0  0  0  0  0  0  0  0  0  0  0  0
   -0.9890   -0.0100   -0.4770 C   0  0  0  0  0  0  0  0  0  0  0  0
   -0.0720    0.6320    0.3000 C   0  0  0  0  0  0  0  0  0  0  0  0
    1.2360    1.0310    0.0860 O   0  0  0  0  0  0  0  0  0  0  0  0
    2.2450    0.0460    0.3150 C   0  0  0  0  0  0  0  0  0  0  0  0
    3.6290    0.6030    0.0480 C   0  0  0  0  0  0  0  0  0  0  0  0
    4.5470   -0.4410    0.3030 O   0  0  0  0  0  0  0  0  0  0  0  0
    5.8880   -0.2080    0.1410 C   0  0  0  0  0  0  0  0  0  0  0  0
    6.3470    1.0220   -0.2630 C   0  0  0  0  0  0  0  0  0  0  0  0
    7.7060    1.2020   -0.4100 C   0  0  0  0  0  0  0  0  0  0  0  0
    8.5770    0.1410   -0.1470 C   0  0  0  0  0  0  0  0  0  0  0  0
    8.1080   -1.0850    0.2570 C   0  0  0  0  0  0  0  0  0  0  0  0
    6.7530   -1.2610    0.4020 C   0  0  0  0  0  0  0  0  0  0  0  0
   -1.0110    0.8870    1.8350 S   0  0  0  0  0  0  0  0  0  0  0  0
  1  2  2  0
  2  3  1  0
  2  4  1  0
  4  5  1  0
  5  6  2  0
  5 10  1  0
  6  7  1  0
  7  8  2  0
  8  9  1  0
  9 10  2  0
 10 11  1  0
 11 12  1  0
 12 13  2  0
 12 26  1  0
 13 14  1  0
 14 15  2  0
 15 16  1  0
 15 26  1  0
 16 17  1  0
 17 18  1  0
 18 19  1  0
 19 20  1  0
 20 21  2  0
 20 25  1  0
 21 22  1  0
 22 23  2  0
 23 24  1  0
 24 25  2  0
M  END
