
     RDKit          3D

 17 18  0  0  0  0  0  0  0  0999 V2000
   -2.2530   -2.3620    0.3950 C   0  0  0  0  0  0  0  0  0  0  0  0
   -1.7580   -1.0120    0.0540 C   0  0  0  0  0  0  0  0  0  0  0  0
   -0.4190   -0.6970    0.1400 C   0  0  0  0  0  0  0  0  0  0  0  0
    0.0410    0.5650   -0.1790 C   0  0  0  0  0  0  0  0  0  0  0  0
    1.3840    0.9080   -0.1020 O   0  0  0  0  0  0  0  0  0  0  0  0
    2.3520   -0.0300    0.3120 C   0  0  0  0  0  0  0  0  0  0  0  0
    2.3860   -0.6710    1.4670 C   0  0  0  0  0  0  0  0  0  0  0  0
    3.5430   -1.5660    1.5380 C   0  0  0  0  0  0  0  0  0  0  0  0
    4.1960   -1.3540    0.2360 C   0  0  0  0  0  0  0  0  0  0  0  0
    3.5070   -0.4750   -0.4560 C   0  0  0  0  0  0  0  0  0  0  0  0
   -0.8270    1.5540   -0.5950 C   0  0  0  0  0  0  0  0  0  0  0  0
   -0.3300    2.9120   -0.9390 C   0  0  1  0  0  0  0  0  0  0  0  0
    0.5730    3.3930   -0.0120 O   0  0  0  0  0  0  0  0  0  0  0  0
    0.2180    2.9640   -2.2010 O   0  0  0  0  0  0  0  0  0  0  0  0
   -2.1660    1.2260   -0.6770 C   0  0  0  0  0  0  0  0  0  0  0  0
   -2.6410   -0.0440   -0.3570 C   0  0  0  0  0  0  0  0  0  0  0  0
   -4.0660   -0.3890   -0.4450 C   0  0  0  0  0  0  0  0  0  0  0  0
  1  2  1  0
  2  3  2  0
  2 16  1  0
  3  4  1  0
  4  5  1  0
  4 11  2  0
  5  6  1  0
  6  7  2  0
  6 10  1  0
  7  8  1  0
  8  9  1  0
  9 10  2  0
 11 12  1  0
 11 15  1  0
 12 13  1  1
 12 14  1  0
 15 16  2  0
 16 17  1  0
M  END
