
     RDKit          3D

 17 18  0  0  0  0  0  0  0  0999 V2000
   -0.7860    2.3630    0.3010 C   0  0  0  0  0  0  0  0  0  0  0  0
   -0.6210    0.8790    0.6720 C   0  0  1  0  0  0  0  0  0  0  0  0
   -0.6410    0.8930    2.0930 O   0  0  0  0  0  0  0  0  0  0  0  0
   -1.8280    0.1820    0.2590 C   0  0  1  0  0  0  0  0  0  0  0  0
   -2.2320    0.1820   -1.1730 C   0  0  0  0  0  0  0  0  0  0  0  0
   -3.7680    0.0540   -1.1970 C   0  0  0  0  0  0  0  0  0  0  0  0
   -4.1840   -0.7450   -0.1060 O   0  0  0  0  0  0  0  0  0  0  0  0
   -3.2510   -1.7680    0.0570 C   0  0  0  0  0  0  0  0  0  0  0  0
   -1.9790   -1.2480    0.7500 C   0  0  0  0  0  0  0  0  0  0  0  0
    0.7270    0.4740    0.2740 C   0  0  2  0  0  0  0  0  0  0  0  0
    1.5790    1.4670    0.8530 O   0  0  0  0  0  0  0  0  0  0  0  0
    1.0360    0.6000   -1.2060 C   0  0  0  0  0  0  0  0  0  0  0  0
    2.2570   -0.1770   -1.6140 C   0  0  0  0  0  0  0  0  0  0  0  0
    3.4900    0.1800   -0.8530 C   0  0  0  0  0  0  0  0  0  0  0  0
    3.6640   -0.8830    0.2400 C   0  0  0  0  0  0  0  0  0  0  0  0
    2.6770   -0.7000    1.3430 C   0  0  0  0  0  0  0  0  0  0  0  0
    1.2310   -0.8190    0.8390 C   0  0  0  0  0  0  0  0  0  0  0  0
  2  1  1  6
  2  3  1  0
  2  4  1  0
  2 10  1  0
  4  5  1  6
  4  9  1  0
  5  6  1  0
  6  7  1  0
  7  8  1  0
  8  9  1  0
 10 11  1  1
 10 12  1  0
 10 17  1  0
 12 13  1  0
 13 14  1  0
 14 15  1  0
 15 16  1  0
 16 17  1  0
M  END
