
     RDKit          3D

 17 18  0  0  0  0  0  0  0  0999 V2000
   -3.2720   -0.4110    1.9020 C   0  0  0  0  0  0  0  0  0  0  0  0
   -2.7880   -0.4780    0.5250 C   0  0  1  0  0  0  0  0  0  0  0  0
   -3.6990   -0.5110   -0.6610 C   0  0  0  0  0  0  0  0  0  0  0  0
   -1.4270    0.0610    0.2620 C   0  0  0  0  0  0  0  0  0  0  0  0
   -0.2760   -0.5520    0.7020 C   0  0  0  0  0  0  0  0  0  0  0  0
    0.9820   -0.2070    0.2730 C   0  0  0  0  0  0  0  0  0  0  0  0
    2.1200   -0.8990    0.7110 C   0  0  0  0  0  0  0  0  0  0  0  0
    3.3920   -0.6010    0.2550 C   0  0  0  0  0  0  0  0  0  0  0  0
    4.5960   -1.3290    0.6700 C   0  0  0  0  0  0  0  0  0  0  0  0
    5.7320   -1.0860    0.2850 O   0  0  0  0  0  0  0  0  0  0  0  0
    3.5050    0.4390   -0.6710 C   0  0  0  0  0  0  0  0  0  0  0  0
    4.7800    0.7650   -1.1390 O   0  0  0  0  0  0  0  0  0  0  0  0
    2.3790    1.1160   -1.1010 C   0  0  0  0  0  0  0  0  0  0  0  0
    1.1240    0.7950   -0.6320 C   0  0  0  0  0  0  0  0  0  0  0  0
   -0.0090    1.4590   -1.1100 C   0  0  0  0  0  0  0  0  0  0  0  0
   -1.2480    1.0940   -0.6700 C   0  0  0  0  0  0  0  0  0  0  0  0
   -2.4090    1.7320   -1.1160 O   0  0  0  0  0  0  0  0  0  0  0  0
  2  1  1  1
  2  3  1  0
  2  4  1  0
  4  5  2  0
  4 16  1  0
  5  6  1  0
  6  7  2  0
  6 14  1  0
  7  8  1  0
  8  9  1  0
  8 11  2  0
  9 10  2  0
 11 12  1  0
 11 13  1  0
 13 14  2  0
 14 15  1  0
 15 16  2  0
 16 17  1  0
M  END
