
     RDKit          3D

 17 18  0  0  0  0  0  0  0  0999 V2000
   -4.8080    0.6340   -0.9380 C   0  0  0  0  0  0  0  0  0  0  0  0
   -4.3070   -0.2690    0.1110 C   0  0  0  0  0  0  0  0  0  0  0  0
   -5.2550   -1.0450    0.9860 C   0  0  0  0  0  0  0  0  0  0  0  0
   -3.0100   -0.4040    0.2920 C   0  0  0  0  0  0  0  0  0  0  0  0
   -2.0940    0.3390   -0.5460 C   0  0  0  0  0  0  0  0  0  0  0  0
   -0.7720    0.2420   -0.4100 C   0  0  0  0  0  0  0  0  0  0  0  0
   -0.1300   -0.6150    0.5900 C   0  0  0  0  0  0  0  0  0  0  0  0
    1.3110   -0.4050    0.3760 C   0  0  0  0  0  0  0  0  0  0  0  0
    2.4540   -0.9120    0.9830 C   0  0  0  0  0  0  0  0  0  0  0  0
    3.6950   -0.5160    0.5510 C   0  0  0  0  0  0  0  0  0  0  0  0
    4.8280   -1.0440    1.1810 O   0  0  0  0  0  0  0  0  0  0  0  0
    3.8360    0.3900   -0.4900 C   0  0  0  0  0  0  0  0  0  0  0  0
    5.2170    0.7620   -0.8920 C   0  0  0  0  0  0  0  0  0  0  0  0
    5.2180    1.6700   -1.9390 O   0  0  0  0  0  0  0  0  0  0  0  0
    2.7200    0.9040   -1.1050 C   0  0  0  0  0  0  0  0  0  0  0  0
    1.4640    0.4890   -0.6510 C   0  0  0  0  0  0  0  0  0  0  0  0
    0.2140    0.8810   -1.1260 O   0  0  0  0  0  0  0  0  0  0  0  0
  1  2  1  0
  2  3  1  0
  2  4  2  3
  4  5  1  0
  5  6  2  3
  6  7  1  0
  6 17  1  0
  7  8  1  0
  8  9  2  0
  8 16  1  0
  9 10  1  0
 10 11  1  0
 10 12  2  0
 12 13  1  0
 12 15  1  0
 13 14  1  0
 15 16  2  0
 16 17  1  0
M  END
