
     RDKit          3D

 35 39  0  0  0  0  0  0  0  0999 V2000
    4.6420   -2.8100    1.9410 C   0  0  0  0  0  0  0  0  0  0  0  0
    5.5050   -1.8820    1.1800 C   0  0  0  0  0  0  0  0  0  0  0  0
    6.8920   -1.8470    1.3910 C   0  0  0  0  0  0  0  0  0  0  0  0
    7.6920   -0.9920    0.7110 C   0  0  0  0  0  0  0  0  0  0  0  0
    7.1850   -0.1240   -0.2130 C   0  0  0  0  0  0  0  0  0  0  0  0
    5.8520   -0.1620   -0.4130 N   0  0  0  0  0  0  0  0  0  0  0  0
    5.0320   -1.0010    0.2490 C   0  0  0  0  0  0  0  0  0  0  0  0
    3.5810   -0.9810   -0.0070 C   0  0  0  0  0  0  0  0  0  0  0  0
    2.8570   -2.1260   -0.2440 C   0  0  0  0  0  0  0  0  0  0  0  0
    1.5000   -2.0830   -0.4710 C   0  0  0  0  0  0  0  0  0  0  0  0
    0.7870   -0.8750   -0.4730 C   0  0  0  0  0  0  0  0  0  0  0  0
   -0.5970   -0.9960   -0.7260 N   0  0  0  0  0  0  0  0  0  0  0  0
   -1.5600    0.0400   -0.6560 C   0  0  0  0  0  0  0  0  0  0  0  0
   -1.2030    1.1820   -0.3440 O   0  0  0  0  0  0  0  0  0  0  0  0
   -3.0090   -0.2200   -0.9520 C   0  0  0  0  0  0  0  0  0  0  0  0
   -3.8670    0.8730   -0.8440 N   0  0  0  0  0  0  0  0  0  0  0  0
   -3.6190    1.8580   -1.8360 C   0  0  0  0  0  0  0  0  0  0  0  0
   -3.7320    3.2900   -1.3860 C   0  0  0  0  0  0  0  0  0  0  0  0
   -3.1400    3.5490   -0.0900 N   0  0  0  0  0  0  0  0  0  0  0  0
   -3.3200    2.4860    0.8750 C   0  0  0  0  0  0  0  0  0  0  0  0
   -2.7570    2.4850    1.9870 O   0  0  0  0  0  0  0  0  0  0  0  0
   -4.2370    1.4190    0.3920 C   0  0  2  0  0  0  0  0  0  0  0  0
   -4.6820    0.5420    1.4880 C   0  0  0  0  0  0  0  0  0  0  0  0
   -5.8980   -0.2730    1.2860 C   0  0  1  0  0  0  0  0  0  0  0  0
   -7.1400    0.5480    1.0040 C   0  0  0  0  0  0  0  0  0  0  0  0
   -8.1320   -0.5370    0.6440 C   0  0  0  0  0  0  0  0  0  0  0  0
   -7.2930   -1.7510    0.3140 C   0  0  0  0  0  0  0  0  0  0  0  0
   -5.9110   -1.2380    0.2510 N   0  0  0  0  0  0  0  0  0  0  0  0
    1.4920    0.2570   -0.2410 C   0  0  0  0  0  0  0  0  0  0  0  0
    2.8730    0.1990   -0.0120 C   0  0  0  0  0  0  0  0  0  0  0  0
    8.1190    0.6950   -0.8520 N   0  0  0  0  0  0  0  0  0  0  0  0
    7.9600    1.3030   -2.1870 C   0  0  0  0  0  0  0  0  0  0  0  0
    9.3290    0.9370   -0.0940 C   0  0  0  0  0  0  0  0  0  0  0  0
    9.4290   -0.6890    0.7510 S   0  0  0  0  0  0  0  0  0  0  0  0
    9.9340   -0.4170    2.1550 O   0  0  0  0  0  0  0  0  0  0  0  0
  1  2  1  0
  2  3  2  0
  2  7  1  0
  3  4  1  0
  4  5  2  0
  4 34  1  0
  5  6  1  0
  5 31  1  0
  6  7  2  0
  7  8  1  0
  8  9  2  0
  8 30  1  0
  9 10  1  0
 10 11  2  0
 11 12  1  0
 11 29  1  0
 12 13  1  0
 13 14  2  0
 13 15  1  0
 15 16  1  0
 16 17  1  0
 16 22  1  0
 17 18  1  0
 18 19  1  0
 19 20  1  0
 20 21  2  0
 20 22  1  0
 22 23  1  1
 24 23  1  6
 24 25  1  0
 24 28  1  0
 25 26  1  0
 26 27  1  0
 27 28  1  0
 29 30  2  0
 31 32  1  0
 31 33  1  0
 34 33  1  6
 34 35  2  0
M  CHG  1  28   1
M  END
