
     RDKit          3D

 35 38  0  0  0  0  0  0  0  0999 V2000
    8.2380    1.5360   -1.4220 C   0  0  0  0  0  0  0  0  0  0  0  0
    7.6280    1.6140   -0.0410 C   0  0  0  0  0  0  0  0  0  0  0  0
    6.4900    2.6090   -0.0630 C   0  0  0  0  0  0  0  0  0  0  0  0
    5.8050    2.7470    1.2310 C   0  0  0  0  0  0  0  0  0  0  0  0
    6.3540    3.5990    2.0300 O   0  0  0  0  0  0  0  0  0  0  0  0
    4.6160    2.0380    1.6650 C   0  0  0  0  0  0  0  0  0  0  0  0
    4.0320    2.2280    2.8900 N   0  0  0  0  0  0  0  0  0  0  0  0
    2.9550    1.4350    3.0210 C   0  0  0  0  0  0  0  0  0  0  0  0
    2.8020    0.7020    1.8850 C   0  0  0  0  0  0  0  0  0  0  0  0
    1.7800   -0.3070    1.5260 C   0  0  0  0  0  0  0  0  0  0  0  0
    0.7570    0.2210    0.6190 C   0  0  0  0  0  0  0  0  0  0  0  0
    0.8720    1.4910    0.3630 O   0  0  0  0  0  0  0  0  0  0  0  0
   -0.3110   -0.3990   -0.0030 N   0  0  0  0  0  0  0  0  0  0  0  0
   -1.4340    0.3630   -0.5760 C   0  0  0  0  0  0  0  0  0  0  0  0
   -2.6440   -0.3570   -0.4770 N   0  0  0  0  0  0  0  0  0  0  0  0
   -3.2920   -0.7330   -1.6850 C   0  0  0  0  0  0  0  0  0  0  0  0
   -3.8720    0.4660   -2.4230 C   0  0  0  0  0  0  0  0  0  0  0  0
   -4.8930    1.1460   -1.5700 C   0  0  0  0  0  0  0  0  0  0  0  0
   -4.5580    2.1450   -0.6920 C   0  0  0  0  0  0  0  0  0  0  0  0
   -5.5250    2.7550    0.1000 C   0  0  0  0  0  0  0  0  0  0  0  0
   -6.8510    2.3830    0.0350 C   0  0  0  0  0  0  0  0  0  0  0  0
   -7.9240    3.0140    0.8700 C   0  0  0  0  0  0  0  0  0  0  0  0
   -7.1900    1.3810   -0.8460 C   0  0  0  0  0  0  0  0  0  0  0  0
   -6.2330    0.7750   -1.6320 C   0  0  0  0  0  0  0  0  0  0  0  0
   -2.7230   -1.4100    0.4860 C   0  0  0  0  0  0  0  0  0  0  0  0
   -1.6400   -2.3860    0.1830 C   0  0  0  0  0  0  0  0  0  0  0  0
   -1.8110   -3.7440    0.1350 C   0  0  0  0  0  0  0  0  0  0  0  0
   -3.1290   -4.3130    0.4150 C   0  0  0  0  0  0  0  0  0  0  0  0
   -0.6800   -4.4970   -0.1890 C   0  0  0  0  0  0  0  0  0  0  0  0
    0.5460   -3.9570   -0.4520 C   0  0  0  0  0  0  0  0  0  0  0  0
    1.7440   -4.7620   -0.7950 C   0  0  0  0  0  0  0  0  0  0  0  0
    0.6990   -2.5890   -0.3990 C   0  0  0  0  0  0  0  0  0  0  0  0
   -0.4110   -1.8100   -0.0780 C   0  0  0  0  0  0  0  0  0  0  0  0
    3.8590    1.0940    1.0380 C   0  0  0  0  0  0  0  0  0  0  0  0
    4.0730    0.5230   -0.3320 C   0  0  0  0  0  0  0  0  0  0  0  0
  1  2  1  0
  2  3  1  0
  3  4  1  0
  4  5  2  0
  4  6  1  0
  6  7  1  0
  6 34  2  0
  7  8  1  0
  8  9  2  0
  9 10  1  0
  9 34  1  0
 10 11  1  0
 11 12  2  0
 11 13  1  0
 13 14  1  0
 13 33  1  0
 14 15  1  0
 15 16  1  0
 15 25  1  0
 16 17  1  0
 17 18  1  0
 18 19  2  0
 18 24  1  0
 19 20  1  0
 20 21  2  0
 21 22  1  0
 21 23  1  0
 23 24  2  0
 25 26  1  0
 26 27  2  0
 26 33  1  0
 27 28  1  0
 27 29  1  0
 29 30  2  0
 30 31  1  0
 30 32  1  0
 32 33  2  0
 34 35  1  0
M  END
