
     RDKit          3D

 35 38  0  0  0  0  0  0  0  0999 V2000
    4.7530   -1.1560   -3.7520 C   0  0  0  0  0  0  0  0  0  0  0  0
    4.3760   -1.3020   -2.3990 O   0  0  0  0  0  0  0  0  0  0  0  0
    3.0870   -1.6780   -2.0620 C   0  0  0  0  0  0  0  0  0  0  0  0
    2.8580   -3.0540   -2.0270 C   0  0  0  0  0  0  0  0  0  0  0  0
    3.9620   -3.9960   -2.3410 C   0  0  0  0  0  0  0  0  0  0  0  0
    1.5970   -3.4780   -1.6970 C   0  0  0  0  0  0  0  0  0  0  0  0
    0.6200   -2.5400   -1.4160 C   0  0  0  0  0  0  0  0  0  0  0  0
    0.8270   -1.1730   -1.4460 C   0  0  0  0  0  0  0  0  0  0  0  0
   -0.2490   -0.3190   -1.1090 N   0  0  0  0  0  0  0  0  0  0  0  0
   -1.6000   -0.7580   -0.9790 C   0  0  0  0  0  0  0  0  0  0  0  0
   -2.0480   -1.5290   -1.9380 N   0  0  0  0  0  0  0  0  0  0  0  0
   -2.4550   -0.3800    0.0920 N   0  0  0  0  0  0  0  0  0  0  0  0
   -1.9460   -0.1620    1.4190 C   0  0  0  0  0  0  0  0  0  0  0  0
   -2.7560   -1.1070    2.3220 C   0  0  1  0  0  0  0  0  0  0  0  0
   -2.4410   -0.7780    3.7420 C   0  0  0  0  0  0  0  0  0  0  0  0
   -3.6490   -0.0080    4.2160 C   0  0  0  0  0  0  0  0  0  0  0  0
   -4.7500   -0.6950    3.4240 C   0  0  0  0  0  0  0  0  0  0  0  0
   -4.1600   -0.9540    2.1190 N   0  0  0  0  0  0  0  0  0  0  0  0
   -4.4800    0.1280    1.2060 C   0  0  0  0  0  0  0  0  0  0  0  0
   -3.8620   -0.2230   -0.1290 C   0  0  1  0  0  0  0  0  0  0  0  0
   -4.2840    0.6620   -1.2290 C   0  0  0  0  0  0  0  0  0  0  0  0
   -3.8910    2.0860   -1.1840 C   0  0  1  0  0  0  0  0  0  0  0  0
   -2.4370    2.3940   -1.1670 C   0  0  0  0  0  0  0  0  0  0  0  0
   -4.4470    2.7300   -2.4680 C   0  0  0  0  0  0  0  0  0  0  0  0
    2.1010   -0.7490   -1.7790 C   0  0  0  0  0  0  0  0  0  0  0  0
    2.4640    0.9460   -1.8280 S   0  0  1  0  0  0  0  0  0  0  0  0
    3.5030    1.2270   -2.9130 O   0  0  0  0  0  0  0  0  0  0  0  0
    1.2980    1.8080   -2.1990 O   0  0  0  0  0  0  0  0  0  0  0  0
    3.1030    1.4930   -0.3200 N   0  0  0  0  0  0  0  0  0  0  0  0
    4.3580    0.7890   -0.0340 C   0  0  0  0  0  0  0  0  0  0  0  0
    5.0050    1.3980    1.1740 C   0  0  0  0  0  0  0  0  0  0  0  0
    4.0650    2.1110    2.0250 N   0  0  0  0  0  0  0  0  0  0  0  0
    4.6160    2.1330    3.3680 C   0  0  0  0  0  0  0  0  0  0  0  0
    2.7790    1.4490    2.1050 C   0  0  0  0  0  0  0  0  0  0  0  0
    2.1490    1.3000    0.7280 C   0  0  0  0  0  0  0  0  0  0  0  0
  1  2  1  0
  2  3  1  0
  3  4  2  0
  3 25  1  0
  4  5  1  0
  4  6  1  0
  6  7  2  0
  7  8  1  0
  8  9  1  0
  8 25  2  0
  9 10  1  0
 10 11  2  0
 10 12  1  0
 12 13  1  0
 12 20  1  0
 14 13  1  6
 14 15  1  0
 14 18  1  0
 15 16  1  0
 16 17  1  0
 17 18  1  0
 18 19  1  0
 19 20  1  0
 20 21  1  6
 21 22  1  0
 22 23  1  6
 22 24  1  0
 25 26  1  0
 26 27  2  0
 26 28  2  0
 26 29  1  1
 29 30  1  0
 29 35  1  0
 30 31  1  0
 31 32  1  0
 32 33  1  0
 32 34  1  0
 34 35  1  0
M  CHG  1  11   1
M  END
