
     RDKit          3D

 34 37  0  0  0  0  0  0  0  0999 V2000
    1.9300    3.9910   -2.8120 C   0  0  0  0  0  0  0  0  0  0  0  0
    1.6980    2.4870   -2.5820 C   0  0  0  0  0  0  0  0  0  0  0  0
    1.4430    2.3020   -1.1420 C   0  0  0  0  0  0  0  0  0  0  0  0
    0.9490    1.0090   -0.6830 N   0  0  0  0  0  0  0  0  0  0  0  0
    1.4430   -0.0370   -0.0800 C   0  0  0  0  0  0  0  0  0  0  0  0
    2.7570   -0.4150    0.3660 C   0  0  0  0  0  0  0  0  0  0  0  0
    3.9690   -0.4470   -0.1140 C   0  0  0  0  0  0  0  0  0  0  0  0
    4.3120   -0.0170   -1.4470 C   0  0  0  0  0  0  0  0  0  0  0  0
    5.5230    0.0190   -1.9180 N   0  0  0  0  0  0  0  0  0  0  0  0
    6.6710   -0.3770   -1.1540 C   0  0  0  0  0  0  0  0  0  0  0  0
    7.9470   -0.3060   -1.6700 C   0  0  0  0  0  0  0  0  0  0  0  0
    9.0090   -0.6760   -0.9120 C   0  0  0  0  0  0  0  0  0  0  0  0
    8.7950   -1.1210    0.3910 C   0  0  0  0  0  0  0  0  0  0  0  0
   10.0050   -1.5310    1.1650 C   0  0  0  0  0  0  0  0  0  0  0  0
    7.5400   -1.1990    0.9320 C   0  0  0  0  0  0  0  0  0  0  0  0
    6.4460   -0.8140    0.1310 C   0  0  0  0  0  0  0  0  0  0  0  0
    5.1400   -0.8900    0.7480 C   0  0  0  0  0  0  0  0  0  0  0  0
    4.9220   -1.2880    1.8910 O   0  0  0  0  0  0  0  0  0  0  0  0
    0.3470   -0.9530    0.2200 C   0  0  0  0  0  0  0  0  0  0  0  0
   -0.7950   -0.4080   -0.2190 C   0  0  0  0  0  0  0  0  0  0  0  0
   -2.2380   -0.7640   -0.3100 C   0  0  0  0  0  0  0  0  0  0  0  0
   -2.7930   -0.9100    1.0180 O   0  0  0  0  0  0  0  0  0  0  0  0
   -4.2120   -0.7790    1.0890 C   0  0  0  0  0  0  0  0  0  0  0  0
   -4.9520   -0.6160   -0.0540 C   0  0  0  0  0  0  0  0  0  0  0  0
   -6.3440   -0.4490   -0.0350 C   0  0  0  0  0  0  0  0  0  0  0  0
   -7.0280   -0.4130   -1.3400 C   0  0  0  0  0  0  0  0  0  0  0  0
   -7.6610   -1.8070   -1.5910 C   0  0  0  0  0  0  0  0  0  0  0  0
   -7.0250   -0.4430    1.1350 C   0  0  0  0  0  0  0  0  0  0  0  0
   -8.4820   -0.1200    1.2280 C   0  0  0  0  0  0  0  0  0  0  0  0
   -6.2910   -0.6190    2.3090 C   0  0  0  0  0  0  0  0  0  0  0  0
   -4.9010   -0.7890    2.2810 C   0  0  0  0  0  0  0  0  0  0  0  0
   -4.2420   -1.0110    3.5690 C   0  0  0  0  0  0  0  0  0  0  0  0
   -0.4090    0.7970   -0.7780 C   0  0  0  0  0  0  0  0  0  0  0  0
   -1.3600    1.7550   -1.3890 C   0  0  0  0  0  0  0  0  0  0  0  0
  1  2  1  0
  2  3  1  0
  3  4  1  0
  4  5  1  0
  4 33  1  0
  5  6  1  0
  5 19  2  0
  6  7  2  3
  7  8  1  0
  7 17  1  0
  8  9  2  0
  9 10  1  0
 10 11  2  0
 10 16  1  0
 11 12  1  0
 12 13  2  0
 13 14  1  0
 13 15  1  0
 15 16  2  0
 16 17  1  0
 17 18  2  0
 19 20  1  0
 20 21  1  0
 20 33  2  0
 21 22  1  0
 22 23  1  0
 23 24  2  0
 23 31  1  0
 24 25  1  0
 25 26  1  0
 25 28  2  0
 26 27  1  0
 28 29  1  0
 28 30  1  0
 30 31  2  0
 31 32  1  0
 33 34  1  0
M  END
