
     RDKit          3D

 35 37  0  0  0  0  0  0  0  0999 V2000
    4.6740   -2.0550   -0.1220 C   0  0  0  0  0  0  0  0  0  0  0  0
    3.9160   -0.8170    0.1650 C   0  0  1  0  0  0  0  0  0  0  0  0
    2.4870   -0.9950   -0.2170 C   0  0  0  0  0  0  0  0  0  0  0  0
    1.8690   -2.0980    0.5940 C   0  0  0  0  0  0  0  0  0  0  0  0
    0.6340   -1.6440    1.3550 C   0  0  0  0  0  0  0  0  0  0  0  0
   -0.6200   -1.7350    0.5010 C   0  0  0  0  0  0  0  0  0  0  0  0
   -1.0820   -3.1340    0.3740 C   0  0  0  0  0  0  0  0  0  0  0  0
   -2.3970   -3.4950    0.3780 C   0  0  0  0  0  0  0  0  0  0  0  0
   -2.6120   -4.9190    0.2390 C   0  0  0  0  0  0  0  0  0  0  0  0
   -3.7800   -5.4860    0.1970 C   0  0  0  0  0  0  0  0  0  0  0  0
   -5.2560   -4.6020    0.3010 Cl  0  0  0  0  0  0  0  0  0  0  0  0
   -3.4280   -2.5080    0.5360 C   0  0  0  0  0  0  0  0  0  0  0  0
   -4.2280   -2.4980    1.5410 O   0  0  0  0  0  0  0  0  0  0  0  0
   -3.7070   -1.3770   -0.4240 C   0  0  0  0  0  0  0  0  0  0  0  0
   -4.2280   -0.1660    0.3140 C   0  0  0  0  0  0  0  0  0  0  0  0
   -3.4550    1.0940   -0.0630 C   0  0  0  0  0  0  0  0  0  0  0  0
   -2.3700    1.5410    0.6560 C   0  0  0  0  0  0  0  0  0  0  0  0
   -1.6650    2.7250    0.2790 C   0  0  0  0  0  0  0  0  0  0  0  0
   -1.9920    3.5040   -0.8020 C   0  0  0  0  0  0  0  0  0  0  0  0
   -3.0810    3.0170   -1.4920 C   0  0  0  0  0  0  0  0  0  0  0  0
   -3.8110    1.8420   -1.1490 C   0  0  0  0  0  0  0  0  0  0  0  0
   -1.2240    4.7110   -1.1630 C   0  0  0  0  0  0  0  0  0  0  0  0
   -1.3530    5.9730   -0.8060 O   0  0  0  0  0  0  0  0  0  0  0  0
   -0.0840    4.6290   -2.0820 N   0  0  0  0  0  0  0  0  0  0  0  0
    0.6660    3.4290   -2.2760 C   0  0  0  0  0  0  0  0  0  0  0  0
    0.9810    3.1120   -3.4870 O   0  0  0  0  0  0  0  0  0  0  0  0
    1.0990    2.5480   -1.2540 N   0  0  0  0  0  0  0  0  0  0  0  0
    1.8260    2.9460   -0.0550 C   0  0  0  0  0  0  0  0  0  0  0  0
    3.3420    2.7590   -0.2760 C   0  0  0  0  0  0  0  0  0  0  0  0
    3.7900    1.4640    0.1360 N   0  0  0  0  0  0  0  0  0  0  0  0
    3.5030    0.9580    1.4930 C   0  0  0  0  0  0  0  0  0  0  0  0
    2.8930    1.5390    2.4240 O   0  0  0  0  0  0  0  0  0  0  0  0
    4.0650   -0.3550    1.5620 N   0  0  0  0  0  0  0  0  0  0  0  0
    4.4970    0.4320   -0.4940 C   0  0  0  0  0  0  0  0  0  0  0  0
    5.3890    0.2220   -1.3600 O   0  0  0  0  0  0  0  0  0  0  0  0
  2  1  1  1
  2  3  1  0
  2 33  1  0
  2 34  1  0
  3  4  1  0
  4  5  1  0
  5  6  1  0
  6  7  1  0
  7  8  2  0
  8  9  1  0
  8 12  1  0
  9 10  2  3
 10 11  1  0
 12 13  2  0
 12 14  1  0
 14 15  1  0
 15 16  1  0
 16 17  2  0
 16 21  1  0
 17 18  1  0
 18 19  2  0
 19 20  1  0
 19 22  1  0
 20 21  2  0
 22 23  2  0
 22 24  1  0
 24 25  1  0
 25 26  2  0
 25 27  1  0
 27 28  1  0
 28 29  1  0
 29 30  1  0
 30 31  1  0
 30 34  1  0
 31 32  2  0
 31 33  1  0
 34 35  2  0
M  END
