
     RDKit          3D

 35 39  0  0  0  0  0  0  0  0999 V2000
   -2.8890   -2.1240   -2.9930 C   0  0  0  0  0  0  0  0  0  0  0  0
   -2.9890   -1.2870   -1.8780 O   0  0  0  0  0  0  0  0  0  0  0  0
   -1.9100   -0.5540   -1.3750 C   0  0  0  0  0  0  0  0  0  0  0  0
   -0.6830   -0.6200   -1.9580 C   0  0  0  0  0  0  0  0  0  0  0  0
    0.3840    0.1240   -1.4370 C   0  0  0  0  0  0  0  0  0  0  0  0
    0.2220    0.9250   -0.3450 C   0  0  0  0  0  0  0  0  0  0  0  0
    1.2920    1.7350    0.2410 C   0  0  1  0  0  0  0  0  0  0  0  0
    1.3760    3.0610   -0.4330 C   0  0  0  0  0  0  0  0  0  0  0  0
    0.9070    1.9870    1.5990 O   0  0  0  0  0  0  0  0  0  0  0  0
    2.6150    1.0620    0.3520 C   0  0  0  0  0  0  0  0  0  0  0  0
    2.9790    0.5990    1.4540 O   0  0  0  0  0  0  0  0  0  0  0  0
    3.4970    0.9200   -0.7430 N   0  0  0  0  0  0  0  0  0  0  0  0
    4.7650    0.3030   -0.7660 C   0  0  0  0  0  0  0  0  0  0  0  0
    5.4540    0.3160   -1.9900 C   0  0  0  0  0  0  0  0  0  0  0  0
    6.7080   -0.2590   -2.1190 C   0  0  0  0  0  0  0  0  0  0  0  0
    7.3140   -0.8610   -1.0420 C   0  0  0  0  0  0  0  0  0  0  0  0
    6.6670   -0.8930    0.1720 C   0  0  0  0  0  0  0  0  0  0  0  0
    5.4180   -0.3090    0.2620 C   0  0  0  0  0  0  0  0  0  0  0  0
    7.2910   -1.5020    1.2410 O   0  0  0  0  0  0  0  0  0  0  0  0
    8.6040   -2.0070    1.2600 C   0  0  0  0  0  0  0  0  0  0  0  0
    9.3850   -1.5010    0.0960 C   0  0  0  0  0  0  0  0  0  0  0  0
    8.5720   -1.4610   -1.0870 O   0  0  0  0  0  0  0  0  0  0  0  0
   -1.0450    0.9610    0.2140 C   0  0  0  0  0  0  0  0  0  0  0  0
   -2.1420    0.2600   -0.2390 C   0  0  0  0  0  0  0  0  0  0  0  0
   -3.3700    0.2520    0.2470 O   0  0  0  0  0  0  0  0  0  0  0  0
   -4.2320    0.6880    1.1460 C   0  0  0  0  0  0  0  0  0  0  0  0
   -3.9820    1.5770    2.1660 C   0  0  0  0  0  0  0  0  0  0  0  0
   -4.9780    1.9400    3.0270 C   0  0  0  0  0  0  0  0  0  0  0  0
   -6.2600    1.4640    2.9460 C   0  0  0  0  0  0  0  0  0  0  0  0
   -6.5210    0.5700    1.9240 C   0  0  0  0  0  0  0  0  0  0  0  0
   -5.5630    0.1880    1.0540 C   0  0  0  0  0  0  0  0  0  0  0  0
   -6.1070   -0.7910    0.0420 C   0  0  1  0  0  0  0  0  0  0  0  0
   -5.3260   -2.0180    0.1180 N   0  0  0  0  0  0  0  0  0  0  0  0
   -7.5190   -0.9710    0.4390 C   0  0  0  0  0  0  0  0  0  0  0  0
   -7.8340   -0.0980    1.6110 C   0  0  0  0  0  0  0  0  0  0  0  0
  1  2  1  0
  2  3  1  0
  3  4  2  0
  3 24  1  0
  4  5  1  0
  5  6  2  0
  6  7  1  0
  6 23  1  0
  7  8  1  6
  7  9  1  0
  7 10  1  0
 10 11  2  0
 10 12  1  0
 12 13  1  0
 13 14  2  0
 13 18  1  0
 14 15  1  0
 15 16  2  0
 16 17  1  0
 16 22  1  0
 17 18  2  0
 17 19  1  0
 19 20  1  0
 20 21  1  0
 21 22  1  0
 23 24  2  0
 24 25  1  0
 25 26  1  0
 26 27  2  0
 26 31  1  0
 27 28  1  0
 28 29  2  0
 29 30  1  0
 30 31  2  0
 30 35  1  0
 31 32  1  0
 32 33  1  1
 32 34  1  0
 34 35  1  0
M  END
