
     RDKit          3D

 35 38  0  0  0  0  0  0  0  0999 V2000
    1.5200   -3.1860    1.0880 O   0  0  0  0  0  0  0  0  0  0  0  0
    0.4970   -2.5010    1.4340 C   0  0  0  0  0  0  0  0  0  0  0  0
    0.6400   -1.4290    2.4810 C   0  0  0  0  0  0  0  0  0  0  0  0
    0.7000   -0.0670    1.8260 C   0  0  0  0  0  0  0  0  0  0  0  0
    1.7660   -0.0060    0.7980 N   0  0  0  0  0  0  0  0  0  0  0  0
    3.0240    0.4570    1.2820 C   0  0  0  0  0  0  0  0  0  0  0  0
    3.0080    0.7190    2.5470 O   0  0  0  0  0  0  0  0  0  0  0  0
    4.2520    0.6630    0.6000 C   0  0  0  0  0  0  0  0  0  0  0  0
    4.3700    0.6910   -0.7610 C   0  0  0  0  0  0  0  0  0  0  0  0
    5.5430    0.9320   -1.4560 C   0  0  0  0  0  0  0  0  0  0  0  0
    6.6930    1.1670   -0.7510 C   0  0  0  0  0  0  0  0  0  0  0  0
    6.6310    1.1520    0.6090 C   0  0  0  0  0  0  0  0  0  0  0  0
    5.4240    0.9020    1.3020 C   0  0  0  0  0  0  0  0  0  0  0  0
    5.5490    0.9220    2.6400 O   0  0  0  0  0  0  0  0  0  0  0  0
    1.5550   -0.4130   -0.5320 C   0  0  0  0  0  0  0  0  0  0  0  0
    0.7630    0.0610   -1.4590 C   0  0  0  0  0  0  0  0  0  0  0  0
    0.8750   -0.8440   -3.0230 Cl  0  0  0  0  0  0  0  0  0  0  0  0
   -0.1370    1.1790   -1.5040 C   0  0  0  0  0  0  0  0  0  0  0  0
    0.1150    2.1180   -2.4080 O   0  0  0  0  0  0  0  0  0  0  0  0
   -1.2840    1.5370   -0.7800 N   0  0  0  0  0  0  0  0  0  0  0  0
   -1.3800    2.9450   -0.3410 C   0  0  0  0  0  0  0  0  0  0  0  0
   -2.4470    3.1010    0.7070 C   0  0  0  0  0  0  0  0  0  0  0  0
   -3.7780    2.7890    0.0750 C   0  0  0  0  0  0  0  0  0  0  0  0
   -3.6750    1.5640   -0.7990 C   0  0  0  0  0  0  0  0  0  0  0  0
   -2.4260    0.7400   -0.4100 C   0  0  1  0  0  0  0  0  0  0  0  0
   -2.5910   -0.5310   -1.0910 C   0  0  0  0  0  0  0  0  0  0  0  0
   -2.8250   -1.6940   -0.3900 C   0  0  0  0  0  0  0  0  0  0  0  0
   -2.9840   -2.8820   -1.0680 N   0  0  0  0  0  0  0  0  0  0  0  0
   -2.9200   -2.9630   -2.4030 C   0  0  0  0  0  0  0  0  0  0  0  0
   -2.6870   -1.8060   -3.1050 C   0  0  0  0  0  0  0  0  0  0  0  0
   -2.5210   -0.5820   -2.4620 C   0  0  0  0  0  0  0  0  0  0  0  0
   -2.3130    0.4050   -3.2100 O   0  0  0  0  0  0  0  0  0  0  0  0
   -2.9500   -1.8450    1.0590 C   0  0  0  0  0  0  0  0  0  0  0  0
   -1.9970   -2.9350    1.5210 C   0  0  0  0  0  0  0  0  0  0  0  0
   -0.7420   -2.7790    0.8130 N   0  0  0  0  0  0  0  0  0  0  0  0
  1  2  2  0
  2  3  1  0
  2 35  1  0
  3  4  1  0
  4  5  1  0
  5  6  1  0
  5 15  1  0
  6  7  2  0
  6  8  1  0
  8  9  2  0
  8 13  1  0
  9 10  1  0
 10 11  2  0
 11 12  1  0
 12 13  2  0
 13 14  1  0
 15 16  2  0
 16 17  1  0
 16 18  1  0
 18 19  2  0
 18 20  1  0
 20 21  1  0
 20 25  1  0
 21 22  1  0
 22 23  1  0
 23 24  1  0
 25 24  1  6
 25 26  1  0
 26 27  2  0
 26 31  1  0
 27 28  1  0
 27 33  1  0
 28 29  1  0
 29 30  2  0
 30 31  1  0
 31 32  2  0
 33 34  1  0
 34 35  1  0
M  END
