
     RDKit          3D

 33 37  0  0  0  0  0  0  0  0999 V2000
   -5.3630    0.8510   -2.2340 C   0  0  0  0  0  0  0  0  0  0  0  0
   -4.8620    0.0420   -1.0700 C   0  0  0  0  0  0  0  0  0  0  0  0
   -3.8010    0.4920   -0.3120 C   0  0  0  0  0  0  0  0  0  0  0  0
   -3.2990   -0.2010    0.7690 C   0  0  0  0  0  0  0  0  0  0  0  0
   -2.2010    0.2730    1.5640 C   0  0  0  0  0  0  0  0  0  0  0  0
   -0.8660   -0.0160    1.1500 N   0  0  0  0  0  0  0  0  0  0  0  0
   -0.1460    0.7960    0.3640 C   0  0  0  0  0  0  0  0  0  0  0  0
   -0.5090    2.0530   -0.2350 N   0  0  0  0  0  0  0  0  0  0  0  0
   -0.7320    2.0580   -1.6690 C   0  0  0  0  0  0  0  0  0  0  0  0
   -1.4110    3.2940   -2.1540 C   0  0  0  0  0  0  0  0  0  0  0  0
   -0.9290    4.5290   -1.6060 N   0  0  0  0  0  0  0  0  0  0  0  0
   -0.1420    4.3990   -0.4080 C   0  0  0  0  0  0  0  0  0  0  0  0
   -0.6530    3.2790    0.4800 C   0  0  0  0  0  0  0  0  0  0  0  0
    1.0870    0.2360    0.1590 N   0  0  0  0  0  0  0  0  0  0  0  0
    1.1520   -0.9270    0.8110 C   0  0  0  0  0  0  0  0  0  0  0  0
    2.1650   -1.8760    0.9270 C   0  0  0  0  0  0  0  0  0  0  0  0
    3.3610   -1.6050    0.2480 N   0  0  0  0  0  0  0  0  0  0  0  0
    3.4770   -1.4370   -1.1870 C   0  0  0  0  0  0  0  0  0  0  0  0
    4.8390   -1.9940   -1.5410 C   0  0  0  0  0  0  0  0  0  0  0  0
    5.5320   -2.2360   -0.1930 C   0  0  0  0  0  0  0  0  0  0  0  0
    4.6970   -1.4260    0.7740 C   0  0  1  0  0  0  0  0  0  0  0  0
    5.0780    0.0420    0.6510 C   0  0  0  0  0  0  0  0  0  0  0  0
    6.4010    0.2930    1.1570 N   0  0  0  0  0  0  0  0  0  0  0  0
    1.8930   -2.9860    1.6920 C   0  0  0  0  0  0  0  0  0  0  0  0
    0.6600   -3.1330    2.3100 C   0  0  0  0  0  0  0  0  0  0  0  0
    0.2930   -4.5410    3.2880 Cl  0  0  0  0  0  0  0  0  0  0  0  0
   -0.3390   -2.1780    2.1850 C   0  0  0  0  0  0  0  0  0  0  0  0
   -0.0760   -1.0700    1.4250 C   0  0  0  0  0  0  0  0  0  0  0  0
   -3.8980   -1.4020    1.0940 C   0  0  0  0  0  0  0  0  0  0  0  0
   -4.9630   -1.8990    0.3690 C   0  0  0  0  0  0  0  0  0  0  0  0
   -5.5980   -3.2150    0.7510 C   0  0  0  0  0  0  0  0  0  0  0  0
   -5.4270   -1.1620   -0.7070 C   0  0  0  0  0  0  0  0  0  0  0  0
   -6.4720   -1.6420   -1.4250 F   0  0  0  0  0  0  0  0  0  0  0  0
  1  2  1  0
  2  3  2  0
  2 32  1  0
  3  4  1  0
  4  5  1  0
  4 29  2  0
  5  6  1  0
  6  7  1  0
  6 28  1  0
  7  8  1  0
  7 14  2  0
  8  9  1  0
  8 13  1  0
  9 10  1  0
 10 11  1  0
 11 12  1  0
 12 13  1  0
 14 15  1  0
 15 16  2  0
 15 28  1  0
 16 17  1  0
 16 24  1  0
 17 18  1  0
 17 21  1  0
 18 19  1  0
 19 20  1  0
 20 21  1  0
 21 22  1  6
 22 23  1  0
 24 25  2  0
 25 26  1  0
 25 27  1  0
 27 28  2  0
 29 30  1  0
 30 31  1  0
 30 32  2  0
 32 33  1  0
M  CHG  2  11   1  23   1
M  END
