
     RDKit          3D

 32 35  0  0  0  0  0  0  0  0999 V2000
   -6.8110   -2.1800    0.9210 C   0  0  0  0  0  0  0  0  0  0  0  0
   -5.7050   -2.0520   -0.1030 C   0  0  0  0  0  0  0  0  0  0  0  0
   -4.6600   -1.2000    0.3850 O   0  0  0  0  0  0  0  0  0  0  0  0
   -3.5240   -1.0980   -0.4450 C   0  0  0  0  0  0  0  0  0  0  0  0
   -3.4760   -1.7830   -1.6300 C   0  0  0  0  0  0  0  0  0  0  0  0
   -2.3660   -1.7080   -2.4190 C   0  0  0  0  0  0  0  0  0  0  0  0
   -1.2940   -0.9360   -2.0140 C   0  0  0  0  0  0  0  0  0  0  0  0
   -0.1190   -1.0980   -2.6550 N   0  0  0  0  0  0  0  0  0  0  0  0
    1.0250   -0.5860   -2.1670 C   0  0  0  0  0  0  0  0  0  0  0  0
    2.0840   -0.8220   -2.8470 O   0  0  0  0  0  0  0  0  0  0  0  0
    1.0280    0.1280   -1.0100 C   0  0  0  0  0  0  0  0  0  0  0  0
    2.2480    0.5290   -0.4320 C   0  0  0  0  0  0  0  0  0  0  0  0
    3.4640    0.4820   -1.2230 C   0  0  0  0  0  0  0  0  0  0  0  0
    4.6970    0.3110   -1.0570 C   0  0  0  0  0  0  0  0  0  0  0  0
    5.5800    0.0470    0.0560 C   0  0  0  0  0  0  0  0  0  0  0  0
    6.9220   -0.0450   -0.0460 C   0  0  0  0  0  0  0  0  0  0  0  0
    7.4700   -0.3340    1.3070 C   0  0  0  0  0  0  0  0  0  0  0  0
    6.3120   -0.4160    2.1470 N   0  0  0  0  0  0  0  0  0  0  0  0
    6.3230   -0.6890    3.4930 O   0  0  0  0  0  0  0  0  0  0  0  0
    5.2560   -0.1980    1.4300 C   0  0  0  0  0  0  0  0  0  0  0  0
    2.1880    1.1170    0.7760 N   0  0  0  0  0  0  0  0  0  0  0  0
    1.0400    1.3600    1.4580 C   0  0  0  0  0  0  0  0  0  0  0  0
    0.9880    1.9060    2.5770 O   0  0  0  0  0  0  0  0  0  0  0  0
   -0.1890    0.9690    0.8710 C   0  0  0  0  0  0  0  0  0  0  0  0
   -1.4000    1.6560    1.4340 C   0  0  0  0  0  0  0  0  0  0  0  0
   -2.2700    2.1500    0.3670 N   0  0  0  0  0  0  0  0  0  0  0  0
   -3.5060    2.8000    0.5230 C   0  0  0  0  0  0  0  0  0  0  0  0
   -4.2570    3.2560   -0.6280 N   0  0  0  0  0  0  0  0  0  0  0  0
   -4.0010    3.0100    1.6600 O   0  0  0  0  0  0  0  0  0  0  0  0
   -0.1770    0.3460   -0.3040 C   0  0  0  0  0  0  0  0  0  0  0  0
   -1.3390   -0.2290   -0.8320 C   0  0  0  0  0  0  0  0  0  0  0  0
   -2.4490   -0.3080   -0.0310 C   0  0  0  0  0  0  0  0  0  0  0  0
  1  2  1  0
  2  3  1  0
  3  4  1  0
  4  5  2  0
  4 32  1  0
  5  6  1  0
  6  7  2  0
  7  8  1  0
  7 31  1  0
  8  9  1  0
  9 10  2  0
  9 11  1  0
 11 12  2  0
 11 30  1  0
 12 13  1  0
 12 21  1  0
 13 14  2  3
 14 15  1  0
 15 16  2  0
 15 20  1  0
 16 17  1  0
 17 18  1  0
 18 19  1  0
 18 20  2  0
 21 22  1  0
 22 23  2  0
 22 24  1  0
 24 25  1  0
 24 30  2  0
 25 26  1  0
 26 27  1  0
 27 28  1  0
 27 29  2  0
 30 31  1  0
 31 32  2  0
M  CHG  1  18   1
M  END
