
     RDKit          3D

 32 35  0  0  0  0  0  0  0  0999 V2000
   -8.1510    2.3160   -1.5010 N   0  0  0  0  0  0  0  0  0  0  0  0
   -6.9570    1.4890   -1.4950 C   0  0  0  0  0  0  0  0  0  0  0  0
   -7.0300    0.3810   -0.4980 C   0  0  2  0  0  0  0  0  0  0  0  0
   -7.2040    0.8950    0.9200 C   0  0  0  0  0  0  0  0  0  0  0  0
   -7.2720   -0.2450    1.8400 N   0  0  0  0  0  0  0  0  0  0  0  0
   -5.8280   -0.4730   -0.5800 C   0  0  0  0  0  0  0  0  0  0  0  0
   -5.7750   -1.8400   -0.7410 C   0  0  0  0  0  0  0  0  0  0  0  0
   -4.4280   -2.1320   -0.7530 C   0  0  0  0  0  0  0  0  0  0  0  0
   -3.7170   -0.9620   -0.6020 C   0  0  0  0  0  0  0  0  0  0  0  0
   -2.2530   -0.8390   -0.5640 C   0  0  0  0  0  0  0  0  0  0  0  0
   -1.5990    0.3610   -0.4450 C   0  0  0  0  0  0  0  0  0  0  0  0
   -0.2090    0.4540   -0.4010 C   0  0  0  0  0  0  0  0  0  0  0  0
    0.5800   -0.6470   -0.4750 C   0  0  0  0  0  0  0  0  0  0  0  0
    1.9900   -0.6930   -0.4390 N   0  0  0  0  0  0  0  0  0  0  0  0
    2.8750    0.4010   -0.3010 C   0  0  0  0  0  0  0  0  0  0  0  0
    2.4000    1.5480   -0.1950 O   0  0  0  0  0  0  0  0  0  0  0  0
    4.3470    0.1870   -0.2810 C   0  0  0  0  0  0  0  0  0  0  0  0
    4.9860   -1.0240   -0.3550 C   0  0  0  0  0  0  0  0  0  0  0  0
    6.3390   -0.7870   -0.3070 C   0  0  0  0  0  0  0  0  0  0  0  0
    6.4790    0.5750   -0.2030 C   0  0  0  0  0  0  0  0  0  0  0  0
    7.7430    1.2950   -0.1180 C   0  0  0  0  0  0  0  0  0  0  0  0
    8.7360    1.0310    0.6830 C   0  0  0  0  0  0  0  0  0  0  0  0
    9.9590    1.7620    0.7270 N   0  0  0  0  0  0  0  0  0  0  0  0
   10.8000    1.2110    1.7440 C   0  0  0  0  0  0  0  0  0  0  0  0
   11.9560    1.6010    2.0690 O   0  0  0  0  0  0  0  0  0  0  0  0
   10.1280    0.1280    2.3580 N   0  0  0  0  0  0  0  0  0  0  0  0
    8.8500    0.0170    1.7020 C   0  0  0  0  0  0  0  0  0  0  0  0
    8.0080   -0.8660    2.0310 O   0  0  0  0  0  0  0  0  0  0  0  0
    5.2620    1.1070   -0.1920 O   0  0  0  0  0  0  0  0  0  0  0  0
   -0.0710   -1.8770   -0.5970 C   0  0  0  0  0  0  0  0  0  0  0  0
   -1.4450   -1.9560   -0.6390 C   0  0  0  0  0  0  0  0  0  0  0  0
   -4.5830    0.0020   -0.5030 O   0  0  0  0  0  0  0  0  0  0  0  0
  1  2  1  0
  3  2  1  6
  3  4  1  0
  3  6  1  0
  4  5  1  0
  6  7  2  0
  6 32  1  0
  7  8  1  0
  8  9  2  0
  9 10  1  0
  9 32  1  0
 10 11  2  0
 10 31  1  0
 11 12  1  0
 12 13  2  0
 13 14  1  0
 13 30  1  0
 14 15  1  0
 15 16  2  0
 15 17  1  0
 17 18  2  0
 17 29  1  0
 18 19  1  0
 19 20  2  0
 20 21  1  0
 20 29  1  0
 21 22  2  3
 22 23  1  0
 22 27  1  0
 23 24  1  0
 24 25  2  0
 24 26  1  0
 26 27  1  0
 27 28  2  0
 30 31  2  0
M  CHG  1   5   1
M  END
