
     RDKit          3D

 33 36  0  0  0  0  0  0  0  0999 V2000
   -8.3390    1.1200    1.9250 C   0  0  0  0  0  0  0  0  0  0  0  0
   -7.5010    0.6170    0.8220 C   0  0  0  0  0  0  0  0  0  0  0  0
   -6.2160    0.9890    0.5670 C   0  0  0  0  0  0  0  0  0  0  0  0
   -5.7760    0.3010   -0.5430 C   0  0  0  0  0  0  0  0  0  0  0  0
   -4.4470    0.4330   -1.1240 C   0  0  0  0  0  0  0  0  0  0  0  0
   -4.2360    0.4060   -2.3630 O   0  0  0  0  0  0  0  0  0  0  0  0
   -3.2930    0.6040   -0.2800 N   0  0  0  0  0  0  0  0  0  0  0  0
   -2.0020    0.7360   -0.7950 N   0  0  0  0  0  0  0  0  0  0  0  0
   -0.9030    0.5290    0.0760 C   0  0  0  0  0  0  0  0  0  0  0  0
   -1.1440    0.2340    1.2730 O   0  0  0  0  0  0  0  0  0  0  0  0
    0.4750    0.6510   -0.3890 C   0  0  0  0  0  0  0  0  0  0  0  0
    0.7270    0.9460   -1.5760 O   0  0  0  0  0  0  0  0  0  0  0  0
    1.5570    0.4320    0.5230 N   0  0  0  0  0  0  0  0  0  0  0  0
    2.8960    0.5630    0.0350 C   0  0  0  0  0  0  0  0  0  0  0  0
    3.2990    0.9870   -1.6620 S   0  0  0  0  0  0  0  0  0  0  0  0
    5.0270    0.9550   -1.4680 C   0  0  0  0  0  0  0  0  0  0  0  0
    5.2150    0.6380   -0.1900 C   0  0  0  0  0  0  0  0  0  0  0  0
    4.1320    0.4280    0.6240 C   0  0  0  0  0  0  0  0  0  0  0  0
    4.1900    0.0900    2.0700 C   0  0  0  0  0  0  0  0  0  0  0  0
    3.1060   -0.1050    2.6720 O   0  0  0  0  0  0  0  0  0  0  0  0
    5.4110   -0.0370    2.8760 C   0  0  0  0  0  0  0  0  0  0  0  0
    5.8100   -1.4890    2.9430 C   0  0  0  0  0  0  0  0  0  0  0  0
    7.2900   -1.7280    3.8860 Cl  0  0  0  0  0  0  0  0  0  0  0  0
    6.7260    0.5800   -0.0160 C   0  0  0  0  0  0  0  0  0  0  0  0
    7.2030    0.2580   -1.4210 C   0  0  2  0  0  0  0  0  0  0  0  0
    8.6630    0.5250   -1.5970 C   0  0  0  0  0  0  0  0  0  0  0  0
    6.3210    1.1700   -2.2270 C   0  0  0  0  0  0  0  0  0  0  0  0
   -6.8300   -0.4910   -0.9440 C   0  0  0  0  0  0  0  0  0  0  0  0
   -6.9450   -1.3790   -1.9920 C   0  0  0  0  0  0  0  0  0  0  0  0
   -8.1080   -2.0760   -2.2130 C   0  0  0  0  0  0  0  0  0  0  0  0
   -9.1540   -1.8490   -1.3400 C   0  0  0  0  0  0  0  0  0  0  0  0
   -9.0070   -0.9530   -0.3000 C   0  0  0  0  0  0  0  0  0  0  0  0
   -7.8620   -0.2840   -0.1040 N   0  0  0  0  0  0  0  0  0  0  0  0
  1  2  1  0
  2  3  2  0
  2 33  1  0
  3  4  1  0
  4  5  1  0
  4 28  2  0
  5  6  2  0
  5  7  1  0
  7  8  1  0
  8  9  1  0
  9 10  2  0
  9 11  1  0
 11 12  2  0
 11 13  1  0
 13 14  1  0
 14 15  1  0
 14 18  2  0
 15 16  1  0
 16 17  2  0
 16 27  1  0
 17 18  1  0
 17 24  1  0
 18 19  1  0
 19 20  2  0
 19 21  1  0
 21 22  1  0
 22 23  1  0
 24 25  1  0
 25 26  1  1
 25 27  1  0
 28 29  1  0
 28 33  1  0
 29 30  2  0
 30 31  1  0
 31 32  2  0
 32 33  1  0
M  END
