
     RDKit          3D

 32 35  0  0  0  0  0  0  0  0999 V2000
   -9.9810   -0.4650   -0.6940 C   0  0  0  0  0  0  0  0  0  0  0  0
   -9.0830   -0.7370    0.3690 O   0  0  0  0  0  0  0  0  0  0  0  0
   -7.7180   -0.5360    0.0980 C   0  0  0  0  0  0  0  0  0  0  0  0
   -6.7790   -0.7800    1.0900 C   0  0  0  0  0  0  0  0  0  0  0  0
   -5.4210   -0.5830    0.8340 C   0  0  0  0  0  0  0  0  0  0  0  0
   -4.9570   -0.1520   -0.3710 C   0  0  0  0  0  0  0  0  0  0  0  0
   -3.5640    0.0840   -0.6610 C   0  0  0  0  0  0  0  0  0  0  0  0
   -3.1680    0.0470   -1.8740 O   0  0  0  0  0  0  0  0  0  0  0  0
   -2.5680    0.3700    0.3670 C   0  0  0  0  0  0  0  0  0  0  0  0
   -2.7650    0.9700    1.5540 N   0  0  0  0  0  0  0  0  0  0  0  0
   -1.5780    1.0440    2.1920 C   0  0  0  0  0  0  0  0  0  0  0  0
   -0.6140    0.4800    1.3930 C   0  0  0  0  0  0  0  0  0  0  0  0
    0.7550    0.3210    1.6060 C   0  0  0  0  0  0  0  0  0  0  0  0
    1.2810    0.7250    2.6700 O   0  0  0  0  0  0  0  0  0  0  0  0
    1.4620   -0.2930    0.5940 C   0  0  0  0  0  0  0  0  0  0  0  0
    2.8540   -0.4790    0.7390 N   0  0  0  0  0  0  0  0  0  0  0  0
    3.7850    0.5080    0.2890 C   0  0  0  0  0  0  0  0  0  0  0  0
    3.3040    1.5450   -0.2480 O   0  0  0  0  0  0  0  0  0  0  0  0
    5.1860    0.3750    0.4180 N   0  0  0  0  0  0  0  0  0  0  0  0
    6.1250    1.3790   -0.0390 C   0  0  0  0  0  0  0  0  0  0  0  0
    7.5230    1.0230    0.2290 C   0  0  0  0  0  0  0  0  0  0  0  0
    8.5880    1.8940    0.0800 C   0  0  0  0  0  0  0  0  0  0  0  0
    9.7250    1.2320    0.4170 C   0  0  0  0  0  0  0  0  0  0  0  0
    9.3630   -0.0490    0.7750 C   0  0  0  0  0  0  0  0  0  0  0  0
    8.0350   -0.1410    0.6500 N   0  0  0  0  0  0  0  0  0  0  0  0
    0.8160   -0.7060   -0.5360 C   0  0  0  0  0  0  0  0  0  0  0  0
    1.5620   -1.3680   -1.6360 C   0  0  0  0  0  0  0  0  0  0  0  0
    0.6470   -1.7310   -2.7250 N   0  0  0  0  0  0  0  0  0  0  0  0
   -0.4940   -0.5300   -0.6920 O   0  0  0  0  0  0  0  0  0  0  0  0
   -1.2090    0.0510    0.2470 C   0  0  0  0  0  0  0  0  0  0  0  0
   -5.9100    0.0880   -1.3570 C   0  0  0  0  0  0  0  0  0  0  0  0
   -7.2520   -0.1010   -1.1190 C   0  0  0  0  0  0  0  0  0  0  0  0
  1  2  1  0
  2  3  1  0
  3  4  2  0
  3 32  1  0
  4  5  1  0
  5  6  2  0
  6  7  1  0
  6 31  1  0
  7  8  2  0
  7  9  1  0
  9 10  1  0
  9 30  2  0
 10 11  1  0
 11 12  2  0
 12 13  1  0
 12 30  1  0
 13 14  2  0
 13 15  1  0
 15 16  1  0
 15 26  2  0
 16 17  1  0
 17 18  2  0
 17 19  1  0
 19 20  1  0
 20 21  1  0
 21 22  2  0
 21 25  1  0
 22 23  1  0
 23 24  2  0
 24 25  1  0
 26 27  1  0
 26 29  1  0
 27 28  1  0
 29 30  1  0
 31 32  2  0
M  CHG  1  28   1
M  END
