
     RDKit          3D

 32 36  0  0  0  0  0  0  0  0999 V2000
   -6.1120   -2.5650    0.9990 C   0  0  0  0  0  0  0  0  0  0  0  0
   -4.9460   -1.8710    0.3630 C   0  0  0  0  0  0  0  0  0  0  0  0
   -3.9050   -1.4510    1.1240 C   0  0  0  0  0  0  0  0  0  0  0  0
   -2.7920   -0.7920    0.5990 C   0  0  0  0  0  0  0  0  0  0  0  0
   -1.7410   -0.4300    1.5430 C   0  0  0  0  0  0  0  0  0  0  0  0
   -0.4120   -0.3590    1.0410 N   0  0  0  0  0  0  0  0  0  0  0  0
    0.2160    0.7510    0.6160 C   0  0  0  0  0  0  0  0  0  0  0  0
   -0.2490    2.0920    0.5940 N   0  0  0  0  0  0  0  0  0  0  0  0
   -0.6480    2.6900   -0.6490 C   0  0  0  0  0  0  0  0  0  0  0  0
   -1.8730    3.5710   -0.4780 C   0  0  0  0  0  0  0  0  0  0  0  0
   -1.6730    4.5360    0.5910 N   0  0  0  0  0  0  0  0  0  0  0  0
   -0.4410    4.3870    1.2950 C   0  0  0  0  0  0  0  0  0  0  0  0
   -0.3550    2.9390    1.7770 C   0  0  0  0  0  0  0  0  0  0  0  0
    1.4550    0.4010    0.1930 N   0  0  0  0  0  0  0  0  0  0  0  0
    1.6430   -0.8960    0.3310 C   0  0  0  0  0  0  0  0  0  0  0  0
    2.7310   -1.7120    0.0350 C   0  0  0  0  0  0  0  0  0  0  0  0
    3.9780   -1.1970   -0.5220 C   0  0  0  0  0  0  0  0  0  0  0  0
    4.9390   -2.0440   -0.8450 C   0  0  0  0  0  0  0  0  0  0  0  0
    6.1790   -1.4440   -1.4100 C   0  0  0  0  0  0  0  0  0  0  0  0
    6.5830   -0.4020   -0.5000 N   0  0  0  0  0  0  0  0  0  0  0  0
    5.6500    0.6730   -0.5560 C   0  0  0  0  0  0  0  0  0  0  0  0
    4.2040    0.2650   -0.7310 C   0  0  0  0  0  0  0  0  0  0  0  0
    2.5680   -3.0620    0.3110 C   0  0  0  0  0  0  0  0  0  0  0  0
    1.3680   -3.5330    0.8530 C   0  0  0  0  0  0  0  0  0  0  0  0
    1.2010   -5.2430    1.1880 Cl  0  0  0  0  0  0  0  0  0  0  0  0
    0.3050   -2.7170    1.1390 C   0  0  0  0  0  0  0  0  0  0  0  0
    0.4570   -1.3760    0.8690 C   0  0  0  0  0  0  0  0  0  0  0  0
   -2.7780   -0.5730   -0.7500 C   0  0  0  0  0  0  0  0  0  0  0  0
   -3.8340   -1.0020   -1.5130 C   0  0  0  0  0  0  0  0  0  0  0  0
   -3.8260   -0.7750   -2.9850 C   0  0  0  0  0  0  0  0  0  0  0  0
   -4.9270   -1.6480   -1.0060 C   0  0  0  0  0  0  0  0  0  0  0  0
   -5.9750   -2.0770   -1.7320 F   0  0  0  0  0  0  0  0  0  0  0  0
  1  2  1  0
  2  3  2  0
  2 31  1  0
  3  4  1  0
  4  5  1  0
  4 28  2  0
  5  6  1  0
  6  7  1  0
  6 27  1  0
  7  8  1  0
  7 14  2  0
  8  9  1  0
  8 13  1  0
  9 10  1  0
 10 11  1  0
 11 12  1  0
 12 13  1  0
 14 15  1  0
 15 16  2  0
 15 27  1  0
 16 17  1  0
 16 23  1  0
 17 18  2  0
 17 22  1  0
 18 19  1  0
 19 20  1  0
 20 21  1  0
 21 22  1  0
 23 24  2  0
 24 25  1  0
 24 26  1  0
 26 27  2  0
 28 29  1  0
 29 30  1  0
 29 31  2  0
 31 32  1  0
M  CHG  2  11   1  20   1
M  END
