
     RDKit          3D

 33 35  0  0  0  0  0  0  0  0999 V2000
   -5.8450   -1.3370    2.3480 C   0  0  0  0  0  0  0  0  0  0  0  0
   -5.3640   -0.5470    1.1600 C   0  0  0  0  0  0  0  0  0  0  0  0
   -6.2340    0.3380    0.5180 C   0  0  0  0  0  0  0  0  0  0  0  0
   -5.8560    1.0890   -0.5720 C   0  0  0  0  0  0  0  0  0  0  0  0
   -6.7090    1.9760   -1.2650 N   0  0  0  0  0  0  0  0  0  0  0  0
   -8.0250    2.2960   -0.8880 C   0  0  0  0  0  0  0  0  0  0  0  0
   -8.5620    1.8170    0.1120 O   0  0  0  0  0  0  0  0  0  0  0  0
   -4.5560    0.9570   -1.0460 C   0  0  0  0  0  0  0  0  0  0  0  0
   -4.0700    1.7540   -2.1930 C   0  0  0  0  0  0  0  0  0  0  0  0
   -3.6840    0.0670   -0.4020 C   0  0  0  0  0  0  0  0  0  0  0  0
   -4.0970   -0.6580    0.6740 C   0  0  0  0  0  0  0  0  0  0  0  0
   -3.1640   -1.5770    1.3500 C   0  0  0  0  0  0  0  0  0  0  0  0
   -2.3260   -2.1970    0.2550 C   0  0  0  0  0  0  0  0  0  0  0  0
   -1.6470   -1.2490   -0.5390 N   0  0  0  0  0  0  0  0  0  0  0  0
   -0.2080   -1.1550   -0.3140 C   0  0  1  0  0  0  0  0  0  0  0  0
    0.3470   -0.2860   -1.3690 C   0  0  0  0  0  0  0  0  0  0  0  0
    0.1410   -0.9450    1.0920 C   0  0  0  0  0  0  0  0  0  0  0  0
    1.5320   -0.8550    1.3650 N   0  0  0  0  0  0  0  0  0  0  0  0
    2.4290    0.1600    0.9710 C   0  0  0  0  0  0  0  0  0  0  0  0
    2.0690    1.1510    0.3410 O   0  0  0  0  0  0  0  0  0  0  0  0
    3.8230    0.0780    1.2940 N   0  0  0  0  0  0  0  0  0  0  0  0
    4.7940    1.0840    0.9150 C   0  0  1  0  0  0  0  0  0  0  0  0
    5.2250    1.8980    2.1180 C   0  0  0  0  0  0  0  0  0  0  0  0
    5.9680    0.4400    0.3220 C   0  0  0  0  0  0  0  0  0  0  0  0
    7.1460    0.5060    0.9640 N   0  0  0  0  0  0  0  0  0  0  0  0
    8.2100   -0.1040    0.3950 C   0  0  0  0  0  0  0  0  0  0  0  0
    9.3200   -0.0550    0.9750 O   0  0  0  0  0  0  0  0  0  0  0  0
    8.1150   -0.7580   -0.7690 N   0  0  0  0  0  0  0  0  0  0  0  0
    6.9560   -0.8480   -1.4420 C   0  0  0  0  0  0  0  0  0  0  0  0
    6.8110   -1.4450   -2.5290 O   0  0  0  0  0  0  0  0  0  0  0  0
    5.8570   -0.2320   -0.8790 C   0  0  0  0  0  0  0  0  0  0  0  0
    4.5240   -0.2720   -1.5570 C   0  0  0  0  0  0  0  0  0  0  0  0
   -2.2940   -0.0770   -0.9300 C   0  0  0  0  0  0  0  0  0  0  0  0
  1  2  1  0
  2  3  2  0
  2 11  1  0
  3  4  1  0
  4  5  1  0
  4  8  2  0
  5  6  1  0
  6  7  2  0
  8  9  1  0
  8 10  1  0
 10 11  2  0
 10 33  1  0
 11 12  1  0
 12 13  1  0
 13 14  1  0
 14 15  1  0
 14 33  1  0
 15 16  1  6
 15 17  1  0
 17 18  1  0
 18 19  1  0
 19 20  2  0
 19 21  1  0
 21 22  1  0
 22 23  1  1
 22 24  1  0
 24 25  1  0
 24 31  2  0
 25 26  1  0
 26 27  2  0
 26 28  1  0
 28 29  1  0
 29 30  2  0
 29 31  1  0
 31 32  1  0
M  END
