
     RDKit          3D

 33 37  0  0  0  0  0  0  0  0999 V2000
    3.1410   -0.9600   -0.6110 O   0  0  0  0  0  0  0  0  0  0  0  0
    2.2810   -0.0540   -0.4480 C   0  0  0  0  0  0  0  0  0  0  0  0
    2.7190    1.2890   -0.4380 N   0  0  0  0  0  0  0  0  0  0  0  0
    4.0540    1.7670   -0.5870 C   0  0  0  0  0  0  0  0  0  0  0  0
    5.0260    1.3280    0.4750 C   0  0  1  0  0  0  0  0  0  0  0  0
    5.1940   -0.0380    0.5590 O   0  0  0  0  0  0  0  0  0  0  0  0
    6.3540    1.9460    0.2500 C   0  0  0  0  0  0  0  0  0  0  0  0
    6.6520    2.7610   -0.7300 C   0  0  0  0  0  0  0  0  0  0  0  0
    8.0600    3.1490   -0.6000 C   0  0  0  0  0  0  0  0  0  0  0  0
    8.5300    2.4410    0.5950 C   0  0  0  0  0  0  0  0  0  0  0  0
    7.5190    1.7440    1.0780 C   0  0  0  0  0  0  0  0  0  0  0  0
    0.9030   -0.3860   -0.2790 N   0  0  0  0  0  0  0  0  0  0  0  0
   -0.0440    0.6920   -0.0950 C   0  0  0  0  0  0  0  0  0  0  0  0
   -1.4230    0.1710    0.2470 C   0  0  0  0  0  0  0  0  0  0  0  0
   -1.7170   -1.0920   -0.4170 N   0  0  2  0  0  0  0  0  0  0  0  0
   -3.1130   -1.3680   -0.2330 C   0  0  0  0  0  0  0  0  0  0  0  0
   -3.8870   -0.1550    0.1080 C   0  0  0  0  0  0  0  0  0  0  0  0
   -4.0500    0.1920    1.4380 C   0  0  0  0  0  0  0  0  0  0  0  0
   -4.7610    1.3110    1.8100 C   0  0  0  0  0  0  0  0  0  0  0  0
   -5.3340    2.1230    0.8600 C   0  0  0  0  0  0  0  0  0  0  0  0
   -5.1780    1.7860   -0.4820 C   0  0  0  0  0  0  0  0  0  0  0  0
   -4.4660    0.6660   -0.8250 C   0  0  0  0  0  0  0  0  0  0  0  0
   -5.8680    2.7850   -1.3130 C   0  0  0  0  0  0  0  0  0  0  0  0
   -6.6820    3.5550   -0.3940 N   0  0  0  0  0  0  0  0  0  0  0  0
   -6.1320    3.3530    0.9180 C   0  0  0  0  0  0  0  0  0  0  0  0
   -0.8470   -2.0840    0.1660 C   0  0  1  0  0  0  0  0  0  0  0  0
   -1.1850   -3.4880   -0.2090 C   0  0  2  0  0  0  0  0  0  0  0  0
   -0.2200   -4.4180    0.4690 C   0  0  0  0  0  0  0  0  0  0  0  0
    0.3470   -5.3350   -0.5710 C   0  0  0  0  0  0  0  0  0  0  0  0
   -0.1010   -4.8460   -1.9070 C   0  0  0  0  0  0  0  0  0  0  0  0
   -1.0870   -3.7460   -1.6920 C   0  0  0  0  0  0  0  0  0  0  0  0
    0.5160   -1.7460   -0.2960 C   0  0  0  0  0  0  0  0  0  0  0  0
    1.3270   -2.6010   -0.6950 O   0  0  0  0  0  0  0  0  0  0  0  0
  1  2  2  0
  2  3  1  0
  2 12  1  0
  3  4  1  0
  4  5  1  0
  5  6  1  6
  5  7  1  0
  7  8  2  0
  7 11  1  0
  8  9  1  0
  9 10  1  0
 10 11  2  0
 12 13  1  0
 12 32  1  0
 13 14  1  0
 14 15  1  0
 15 16  1  1
 15 26  1  0
 16 17  1  0
 17 18  2  0
 17 22  1  0
 18 19  1  0
 19 20  2  0
 20 21  1  0
 20 25  1  0
 21 22  2  0
 21 23  1  0
 23 24  1  0
 24 25  1  0
 26 27  1  0
 26 32  1  6
 27 28  1  1
 27 31  1  0
 28 29  1  0
 29 30  1  0
 30 31  1  0
 32 33  2  0
M  CHG  2  15   1  24   1
M  END
