
     RDKit          3D

 33 37  0  0  0  0  0  0  0  0999 V2000
    8.8770    0.8480   -1.2180 C   0  0  0  0  0  0  0  0  0  0  0  0
    7.4420    1.3260   -1.2810 C   0  0  0  0  0  0  0  0  0  0  0  0
    6.8220    1.4660    0.0930 C   0  0  1  0  0  0  0  0  0  0  0  0
    5.4100    1.9370   -0.0560 C   0  0  0  0  0  0  0  0  0  0  0  0
    4.5960    1.8170    1.1880 C   0  0  0  0  0  0  0  0  0  0  0  0
    4.6470    0.4680    1.8520 C   0  0  1  0  0  0  0  0  0  0  0  0
    3.3970   -0.2320    1.5680 N   0  0  0  0  0  0  0  0  0  0  0  0
    3.5210   -0.9350    0.4960 C   0  0  0  0  0  0  0  0  0  0  0  0
    2.4890   -1.7370   -0.0620 N   0  0  0  0  0  0  0  0  0  0  0  0
    1.1510   -1.8630    0.4440 C   0  0  0  0  0  0  0  0  0  0  0  0
    0.2990   -0.6620    0.2550 C   0  0  0  0  0  0  0  0  0  0  0  0
   -1.0350   -0.7680    0.7580 N   0  0  2  0  0  0  0  0  0  0  0  0
   -1.5000   -2.0570    1.1150 C   0  0  0  0  0  0  0  0  0  0  0  0
   -1.9340   -0.0420   -0.1190 C   0  0  1  0  0  0  0  0  0  0  0  0
   -1.6740   -0.2180   -1.5730 C   0  0  0  0  0  0  0  0  0  0  0  0
   -2.9950   -0.1090   -2.3320 C   0  0  1  0  0  0  0  0  0  0  0  0
   -3.9260   -1.0310   -1.8840 O   0  0  0  0  0  0  0  0  0  0  0  0
   -3.5300    1.2850   -2.3880 C   0  0  0  0  0  0  0  0  0  0  0  0
   -4.4110    1.6190   -1.1840 C   0  0  0  0  0  0  0  0  0  0  0  0
   -4.4470    0.4500   -0.2450 C   0  0  0  0  0  0  0  0  0  0  0  0
   -3.3740   -0.2790    0.2250 C   0  0  0  0  0  0  0  0  0  0  0  0
   -3.8830   -1.1760    0.9980 O   0  0  0  0  0  0  0  0  0  0  0  0
   -5.1740   -1.1300    1.0970 C   0  0  0  0  0  0  0  0  0  0  0  0
   -6.1320   -1.8720    1.7910 C   0  0  0  0  0  0  0  0  0  0  0  0
   -7.4750   -1.5720    1.6890 C   0  0  0  0  0  0  0  0  0  0  0  0
   -7.9040   -0.5170    0.8880 C   0  0  0  0  0  0  0  0  0  0  0  0
   -9.2630   -0.2150    0.7850 O   0  0  0  0  0  0  0  0  0  0  0  0
   -9.6300    0.8760   -0.0520 C   0  0  0  0  0  0  0  0  0  0  0  0
   -6.9280    0.2070    0.2080 C   0  0  0  0  0  0  0  0  0  0  0  0
   -5.5980   -0.0870    0.3070 C   0  0  0  0  0  0  0  0  0  0  0  0
    4.8650   -0.7950   -0.0110 N   0  0  0  0  0  0  0  0  0  0  0  0
    5.6440   -0.4550    1.1740 C   0  0  1  0  0  0  0  0  0  0  0  0
    6.9460    0.1890    0.8900 C   0  0  0  0  0  0  0  0  0  0  0  0
  1  2  1  0
  3  2  1  6
  3  4  1  0
  3 33  1  0
  4  5  1  0
  6  5  1  6
  6  7  1  0
  6 32  1  0
  7  8  2  0
  8  9  1  0
  8 31  1  0
  9 10  1  0
 10 11  1  0
 11 12  1  0
 12 13  1  6
 12 14  1  0
 14 15  1  6
 14 21  1  0
 15 16  1  0
 16 17  1  1
 16 18  1  0
 18 19  1  0
 19 20  1  0
 20 21  2  0
 20 30  1  0
 21 22  1  0
 22 23  1  0
 23 24  2  0
 23 30  1  0
 24 25  1  0
 25 26  2  0
 26 27  1  0
 26 29  1  0
 27 28  1  0
 29 30  2  0
 31 32  1  0
 32 33  1  6
M  CHG  2   7   1  12   1
M  END
