
     RDKit          3D

 32 34  0  0  0  0  0  0  0  0999 V2000
    1.8960   -4.1200    1.2900 C   0  0  0  0  0  0  0  0  0  0  0  0
    1.8490   -2.8220    0.7440 C   0  0  0  0  0  0  0  0  0  0  0  0
    0.5280   -2.3940    0.6250 N   0  0  0  0  0  0  0  0  0  0  0  0
   -0.0660   -1.2390    0.1650 C   0  0  0  0  0  0  0  0  0  0  0  0
    0.7020   -0.3290   -0.2600 O   0  0  0  0  0  0  0  0  0  0  0  0
   -1.5150   -0.9610    0.1190 C   0  0  0  0  0  0  0  0  0  0  0  0
   -1.9930    0.2170   -0.4010 N   0  0  0  0  0  0  0  0  0  0  0  0
   -3.3230    0.2560   -0.3370 C   0  0  0  0  0  0  0  0  0  0  0  0
   -4.2620    1.3150   -0.7790 C   0  0  0  0  0  0  0  0  0  0  0  0
   -5.5570    1.0390   -0.2520 N   0  0  0  0  0  0  0  0  0  0  0  0
   -5.6020    1.0120    1.1910 C   0  0  0  0  0  0  0  0  0  0  0  0
   -6.2110    2.3240    1.6260 C   0  0  0  0  0  0  0  0  0  0  0  0
   -6.8700    2.8900    0.4150 C   0  0  0  0  0  0  0  0  0  0  0  0
   -6.5830    1.9310   -0.6970 C   0  0  2  0  0  0  0  0  0  0  0  0
   -7.8280    1.1080   -0.9120 C   0  0  0  0  0  0  0  0  0  0  0  0
   -9.0300    1.7120   -1.3560 N   0  0  0  0  0  0  0  0  0  0  0  0
   -7.8470   -0.1330   -0.7070 O   0  0  0  0  0  0  0  0  0  0  0  0
   -3.6870   -0.8990    0.2240 N   0  0  0  0  0  0  0  0  0  0  0  0
   -2.5770   -1.6600    0.5110 C   0  0  0  0  0  0  0  0  0  0  0  0
   -2.6570   -2.9990    1.1450 C   0  0  0  0  0  0  0  0  0  0  0  0
    3.1490   -2.3020    0.4610 C   0  0  0  0  0  0  0  0  0  0  0  0
    4.1170   -3.1380    0.7660 O   0  0  0  0  0  0  0  0  0  0  0  0
    3.5840   -1.0920   -0.0700 N   0  0  0  0  0  0  0  0  0  0  0  0
    4.9830   -0.8000   -0.2800 C   0  0  0  0  0  0  0  0  0  0  0  0
    5.9350   -1.7310   -0.5350 C   0  0  0  0  0  0  0  0  0  0  0  0
    7.2860   -1.3710   -0.6970 C   0  0  0  0  0  0  0  0  0  0  0  0
    7.6950   -0.0590   -0.6030 C   0  0  0  0  0  0  0  0  0  0  0  0
    9.0300    0.2340   -0.7700 O   0  0  0  0  0  0  0  0  0  0  0  0
    9.5540    1.5300   -0.7060 C   0  0  0  0  0  0  0  0  0  0  0  0
    8.9380    2.3750   -1.7900 C   0  0  0  0  0  0  0  0  0  0  0  0
    6.7250    0.8810   -0.3450 C   0  0  0  0  0  0  0  0  0  0  0  0
    5.3970    0.5400   -0.1840 C   0  0  0  0  0  0  0  0  0  0  0  0
  1  2  2  0
  2  3  1  0
  2 21  1  0
  3  4  1  0
  4  5  2  0
  4  6  1  0
  6  7  1  0
  6 19  2  0
  7  8  2  0
  8  9  1  0
  8 18  1  0
  9 10  1  0
 10 11  1  0
 10 14  1  0
 11 12  1  0
 12 13  1  0
 13 14  1  0
 14 15  1  1
 15 16  1  0
 15 17  2  0
 18 19  1  0
 19 20  1  0
 21 22  2  0
 21 23  1  0
 23 24  1  0
 24 25  2  0
 24 32  1  0
 25 26  1  0
 26 27  2  0
 27 28  1  0
 27 31  1  0
 28 29  1  0
 29 30  1  0
 31 32  2  0
M  END
