
     RDKit          3D

 33 36  0  0  0  0  0  0  0  0999 V2000
    5.7800    2.1090   -0.7080 C   0  0  0  0  0  0  0  0  0  0  0  0
    4.6480    1.4570   -1.1200 O   0  0  0  0  0  0  0  0  0  0  0  0
    4.4500    0.2290   -0.5710 C   0  0  0  0  0  0  0  0  0  0  0  0
    4.1090    0.1180    0.8630 C   0  0  0  0  0  0  0  0  0  0  0  0
    2.7760    0.6780    1.2110 N   0  0  0  0  0  0  0  0  0  0  0  0
    1.6560   -0.0200    1.2460 C   0  0  0  0  0  0  0  0  0  0  0  0
    0.4570    0.5570    1.5380 C   0  0  0  0  0  0  0  0  0  0  0  0
    0.9980    2.3020    1.8050 S   0  0  0  0  0  0  0  0  0  0  0  0
    2.6580    1.9880    1.4910 C   0  0  0  0  0  0  0  0  0  0  0  0
    3.6490    2.9140    1.5270 O   0  0  0  0  0  0  0  0  0  0  0  0
   -0.8100   -0.0740    1.6070 C   0  0  0  0  0  0  0  0  0  0  0  0
   -1.9780    0.6670    1.3170 N   0  0  0  0  0  0  0  0  0  0  0  0
   -2.1010    2.0820    1.4430 C   0  0  0  0  0  0  0  0  0  0  0  0
   -2.2740    2.9100    0.2490 C   0  0  0  0  0  0  0  0  0  0  0  0
   -3.3820    3.7030    0.1050 C   0  0  0  0  0  0  0  0  0  0  0  0
   -3.3370    4.4340   -1.1620 C   0  0  0  0  0  0  0  0  0  0  0  0
   -2.0920    4.0020   -1.7710 C   0  0  0  0  0  0  0  0  0  0  0  0
   -1.5030    3.1310   -0.9440 C   0  0  0  0  0  0  0  0  0  0  0  0
    0.0270    2.4160   -1.3970 Cl  0  0  0  0  0  0  0  0  0  0  0  0
   -3.2240   -0.0720    1.0410 C   0  0  0  0  0  0  0  0  0  0  0  0
   -4.2700    0.5420    1.3390 O   0  0  0  0  0  0  0  0  0  0  0  0
   -3.3150   -1.3990    0.4740 C   0  0  0  0  0  0  0  0  0  0  0  0
   -4.0660   -2.4210    0.9390 C   0  0  0  0  0  0  0  0  0  0  0  0
   -3.8790   -3.5870    0.0860 C   0  0  0  0  0  0  0  0  0  0  0  0
   -2.9410   -3.1470   -0.9450 C   0  0  0  0  0  0  0  0  0  0  0  0
   -2.5200   -3.9660   -1.9540 F   0  0  0  0  0  0  0  0  0  0  0  0
   -2.6300   -1.8880   -0.7000 C   0  0  0  0  0  0  0  0  0  0  0  0
   -1.6860   -1.0820   -1.5580 C   0  0  0  0  0  0  0  0  0  0  0  0
   -0.4270   -1.9170   -1.7150 C   0  0  0  0  0  0  0  0  0  0  0  0
    0.8060   -1.2560   -1.1990 C   0  0  0  0  0  0  0  0  0  0  0  0
    1.5360   -2.0310   -0.1630 C   0  0  2  0  0  0  0  0  0  0  0  0
    1.0530   -3.4720   -0.0330 C   0  0  0  0  0  0  0  0  0  0  0  0
    1.5790   -1.4690    1.1250 N   0  0  0  0  0  0  0  0  0  0  0  0
  1  2  1  0
  2  3  1  0
  3  4  1  0
  4  5  1  0
  5  6  1  0
  5  9  1  0
  6  7  2  0
  6 33  1  0
  7  8  1  0
  7 11  1  0
  8  9  1  0
  9 10  2  0
 11 12  1  0
 12 13  1  0
 12 20  1  0
 13 14  1  0
 14 15  2  0
 14 18  1  0
 15 16  1  0
 16 17  1  0
 17 18  2  0
 18 19  1  0
 20 21  2  0
 20 22  1  0
 22 23  2  0
 22 27  1  0
 23 24  1  0
 24 25  1  0
 25 26  1  0
 25 27  2  0
 27 28  1  0
 28 29  1  0
 29 30  1  0
 30 31  1  0
 31 32  1  1
 31 33  1  0
M  CHG  1  33   1
M  END
