
     RDKit          3D

 32 36  0  0  0  0  0  0  0  0999 V2000
    2.8020    1.8850    1.4430 C   0  0  0  0  0  0  0  0  0  0  0  0
    3.9190    1.0500    0.8740 C   0  0  0  0  0  0  0  0  0  0  0  0
    5.1150    0.9650    1.5540 C   0  0  0  0  0  0  0  0  0  0  0  0
    6.1520    0.2140    1.0620 C   0  0  0  0  0  0  0  0  0  0  0  0
    7.4490   -0.0540    1.5190 C   0  0  0  0  0  0  0  0  0  0  0  0
    8.0170   -0.8640    0.6130 N   0  0  0  0  0  0  0  0  0  0  0  0
    7.1450   -1.1150   -0.3820 C   0  0  0  0  0  0  0  0  0  0  0  0
    7.4850   -2.1250   -1.7610 Cl  0  0  0  0  0  0  0  0  0  0  0  0
    5.9620   -0.4520   -0.1300 C   0  0  0  0  0  0  0  0  0  0  0  0
    4.7480   -0.3580   -0.8070 C   0  0  0  0  0  0  0  0  0  0  0  0
    3.7040    0.3940   -0.3190 C   0  0  0  0  0  0  0  0  0  0  0  0
    2.1680    0.5000   -1.1940 S   0  0  1  0  0  0  0  0  0  0  0  0
    2.0600    1.9220   -1.6400 O   0  0  0  0  0  0  0  0  0  0  0  0
    2.2640   -0.3420   -2.4600 O   0  0  0  0  0  0  0  0  0  0  0  0
    0.8790   -0.0770   -0.2670 N   0  0  0  0  0  0  0  0  0  0  0  0
    0.9790   -1.4460    0.1040 C   0  0  0  0  0  0  0  0  0  0  0  0
    0.3280   -2.4440   -0.7650 C   0  0  0  0  0  0  0  0  0  0  0  0
   -0.7330   -1.9600   -1.6870 C   0  0  0  0  0  0  0  0  0  0  0  0
   -0.7430   -0.4960   -1.9400 C   0  0  0  0  0  0  0  0  0  0  0  0
   -0.4380    0.2700   -0.6740 C   0  0  2  0  0  0  0  0  0  0  0  0
   -0.4930    1.7420   -0.9710 C   0  0  0  0  0  0  0  0  0  0  0  0
   -1.3890   -0.1650    0.4070 C   0  0  0  0  0  0  0  0  0  0  0  0
   -2.7310    0.1510    0.0700 N   0  0  0  0  0  0  0  0  0  0  0  0
   -3.6900   -0.3000    1.0720 C   0  0  2  0  0  0  0  0  0  0  0  0
   -4.1540   -1.7180    0.8370 C   0  0  0  0  0  0  0  0  0  0  0  0
   -5.2890   -1.5090    0.0250 O   0  0  0  0  0  0  0  0  0  0  0  0
   -5.8510   -0.2700    0.2540 C   0  0  0  0  0  0  0  0  0  0  0  0
   -7.1270    0.2380   -0.0520 C   0  0  0  0  0  0  0  0  0  0  0  0
   -7.4190    1.5370    0.3000 C   0  0  0  0  0  0  0  0  0  0  0  0
   -6.5030    2.3290    0.9330 C   0  0  0  0  0  0  0  0  0  0  0  0
   -5.2670    1.8140    1.2210 C   0  0  0  0  0  0  0  0  0  0  0  0
   -4.9180    0.5060    0.8870 C   0  0  0  0  0  0  0  0  0  0  0  0
  1  2  1  0
  2  3  2  0
  2 11  1  0
  3  4  1  0
  4  5  2  0
  4  9  1  0
  5  6  1  0
  6  7  1  0
  7  8  1  0
  7  9  2  0
  9 10  1  0
 10 11  2  0
 11 12  1  0
 12 13  2  0
 12 14  2  0
 12 15  1  1
 15 16  1  0
 15 20  1  0
 16 17  1  0
 17 18  1  0
 18 19  1  0
 19 20  1  0
 20 21  1  6
 20 22  1  0
 22 23  1  0
 24 23  1  6
 24 25  1  0
 24 32  1  0
 25 26  1  0
 26 27  1  0
 27 28  2  0
 27 32  1  0
 28 29  1  0
 29 30  2  0
 30 31  1  0
 31 32  2  0
M  CHG  1  23   1
M  END
