
     RDKit          3D

 33 37  0  0  0  0  0  0  0  0999 V2000
   -3.6780   -4.9620    1.5320 C   0  0  0  0  0  0  0  0  0  0  0  0
   -4.3840   -3.8210    0.8960 C   0  0  0  0  0  0  0  0  0  0  0  0
   -5.6530   -3.8810    0.3720 N   0  0  0  0  0  0  0  0  0  0  0  0
   -6.0150   -2.7170   -0.1020 N   0  0  0  0  0  0  0  0  0  0  0  0
   -7.2390   -2.2720   -0.7770 C   0  0  0  0  0  0  0  0  0  0  0  0
   -4.9730   -1.8730    0.1090 C   0  0  0  0  0  0  0  0  0  0  0  0
   -3.9360   -2.5730    0.7420 C   0  0  0  0  0  0  0  0  0  0  0  0
   -2.5670   -1.9290    0.9430 C   0  0  0  0  0  0  0  0  0  0  0  0
   -2.8030   -0.4860    0.7170 N   0  0  0  0  0  0  0  0  0  0  0  0
   -1.6240    0.0600   -0.4900 S   0  0  2  0  0  0  0  0  0  0  0  0
   -2.0900    0.1800   -1.7500 O   0  0  0  0  0  0  0  0  0  0  0  0
   -0.2850   -0.6740   -0.2070 N   0  0  0  0  0  0  0  0  0  0  0  0
    0.7820    0.3190   -0.2210 C   0  0  0  0  0  0  0  0  0  0  0  0
    2.1160   -0.1160   -0.4150 N   0  0  0  0  0  0  0  0  0  0  0  0
    2.4620   -1.2250   -1.2990 C   0  0  0  0  0  0  0  0  0  0  0  0
    3.3350   -2.1660   -0.5280 C   0  0  0  0  0  0  0  0  0  0  0  0
    4.5160   -1.5300    0.0590 N   0  0  0  0  0  0  0  0  0  0  0  0
    5.6510   -2.2470   -0.4940 C   0  0  0  0  0  0  0  0  0  0  0  0
    6.9480   -2.0690    0.2100 C   0  0  1  0  0  0  0  0  0  0  0  0
    7.6690   -0.7590    0.3840 C   0  0  0  0  0  0  0  0  0  0  0  0
    6.9370   -1.3380    1.5130 C   0  0  0  0  0  0  0  0  0  0  0  0
    4.4970   -0.1320   -0.3280 C   0  0  0  0  0  0  0  0  0  0  0  0
    3.2290    0.4950    0.2650 C   0  0  0  0  0  0  0  0  0  0  0  0
    0.3840    1.4960   -0.0650 N   0  0  0  0  0  0  0  0  0  0  0  0
   -0.9950    1.6980    0.1010 C   0  0  0  0  0  0  0  0  0  0  0  0
   -1.7890    2.6230    0.5170 C   0  0  0  0  0  0  0  0  0  0  0  0
   -1.4360    3.9110    0.9900 N   0  0  0  0  0  0  0  0  0  0  0  0
   -1.6140    5.0130    0.1250 C   0  0  0  0  0  0  0  0  0  0  0  0
   -0.5260    5.7190   -0.3390 C   0  0  0  0  0  0  0  0  0  0  0  0
   -0.6650    6.8390   -1.1790 C   0  0  0  0  0  0  0  0  0  0  0  0
   -1.9090    7.2420   -1.5430 C   0  0  0  0  0  0  0  0  0  0  0  0
   -3.0270    6.5500   -1.0900 C   0  0  0  0  0  0  0  0  0  0  0  0
   -2.8520    5.4350   -0.2540 C   0  0  0  0  0  0  0  0  0  0  0  0
  1  2  1  0
  2  3  2  0
  2  7  1  0
  3  4  1  0
  4  5  1  0
  4  6  1  0
  6  7  2  0
  7  8  1  0
  8  9  1  0
 10  9  1  1
 10 11  2  0
 10 12  2  0
 10 25  1  0
 12 13  1  0
 13 14  1  0
 13 24  2  0
 14 15  1  0
 14 23  1  0
 15 16  1  0
 16 17  1  0
 17 18  1  0
 17 22  1  0
 19 18  1  6
 19 20  1  0
 19 21  1  0
 20 21  1  0
 22 23  1  0
 24 25  1  0
 25 26  2  3
 26 27  1  0
 27 28  1  0
 28 29  2  0
 28 33  1  0
 29 30  1  0
 30 31  2  0
 31 32  1  0
 32 33  2  0
M  CHG  1   3   1
M  END
