
     RDKit          3D

 33 36  0  0  0  0  0  0  0  0999 V2000
   -1.8730   -5.6430   -3.5160 C   0  0  0  0  0  0  0  0  0  0  0  0
   -2.2550   -5.6000   -2.0540 C   0  0  0  0  0  0  0  0  0  0  0  0
   -2.9460   -4.4060   -1.6950 N   0  0  0  0  0  0  0  0  0  0  0  0
   -2.3820   -3.3820   -1.1350 C   0  0  0  0  0  0  0  0  0  0  0  0
   -0.7310   -3.3290   -0.7520 S   0  0  0  0  0  0  0  0  0  0  0  0
   -0.2490   -1.8180   -0.0170 C   0  0  0  0  0  0  0  0  0  0  0  0
    0.8960   -1.6230    0.3090 N   0  0  0  0  0  0  0  0  0  0  0  0
    2.0050   -1.0790    0.7720 C   0  0  0  0  0  0  0  0  0  0  0  0
    2.9010   -0.4720   -0.1390 C   0  0  0  0  0  0  0  0  0  0  0  0
    4.0730    0.1090    0.2360 C   0  0  0  0  0  0  0  0  0  0  0  0
    4.4430    0.1290    1.5600 C   0  0  0  0  0  0  0  0  0  0  0  0
    5.6650    0.7350    1.9110 N   0  0  0  0  0  0  0  0  0  0  0  0
    6.1330    0.9410    3.2650 C   0  0  0  0  0  0  0  0  0  0  0  0
    6.6170    2.3940    3.3390 C   0  0  0  0  0  0  0  0  0  0  0  0
    7.7010    2.5700    2.5160 O   0  0  0  0  0  0  0  0  0  0  0  0
    7.8740    1.5830    1.5810 C   0  0  0  0  0  0  0  0  0  0  0  0
    6.5940    1.2120    0.8680 C   0  0  0  0  0  0  0  0  0  0  0  0
    3.6010   -0.4500    2.4780 C   0  0  0  0  0  0  0  0  0  0  0  0
    2.4180   -1.0380    2.1150 C   0  0  0  0  0  0  0  0  0  0  0  0
   -1.2720   -0.9230    0.1330 N   0  0  0  0  0  0  0  0  0  0  0  0
   -0.8530    0.3490    0.7570 C   0  0  0  0  0  0  0  0  0  0  0  0
   -0.4060    1.2560   -0.3390 C   0  0  0  0  0  0  0  0  0  0  0  0
   -2.5380   -1.1200   -0.2250 C   0  0  0  0  0  0  0  0  0  0  0  0
   -3.4290   -0.0080    0.0680 N   0  0  0  0  0  0  0  0  0  0  0  0
   -3.7960    0.8360   -0.8300 C   0  0  0  0  0  0  0  0  0  0  0  0
   -3.4640    0.9290   -2.2730 C   0  0  0  0  0  0  0  0  0  0  0  0
   -3.6540    2.4060   -2.5520 C   0  0  0  0  0  0  0  0  0  0  0  0
   -4.8760    2.7190   -1.7080 C   0  0  0  0  0  0  0  0  0  0  0  0
   -4.6750    1.9140   -0.5170 N   0  0  0  0  0  0  0  0  0  0  0  0
   -5.2930    2.1920    0.7650 C   0  0  0  0  0  0  0  0  0  0  0  0
   -4.9060    3.4950    1.2470 N   0  0  0  0  0  0  0  0  0  0  0  0
   -3.0750   -2.2410   -0.8100 C   0  0  0  0  0  0  0  0  0  0  0  0
   -4.4780   -2.2180   -1.1090 N   0  0  0  0  0  0  0  0  0  0  0  0
  1  2  1  0
  2  3  1  0
  3  4  2  3
  4  5  1  0
  4 32  1  0
  5  6  1  0
  6  7  2  3
  6 20  1  0
  7  8  1  0
  8  9  2  0
  8 19  1  0
  9 10  1  0
 10 11  2  0
 11 12  1  0
 11 18  1  0
 12 13  1  0
 12 17  1  0
 13 14  1  0
 14 15  1  0
 15 16  1  0
 16 17  1  0
 18 19  2  0
 20 21  1  0
 20 23  1  0
 21 22  1  0
 23 24  1  0
 23 32  2  0
 24 25  2  3
 25 26  1  0
 25 29  1  0
 26 27  1  0
 27 28  1  0
 28 29  1  0
 29 30  1  0
 30 31  1  0
 32 33  1  0
M  CHG  1  31   1
M  END
