
     RDKit          3D

 32 36  0  0  0  0  0  0  0  0999 V2000
    5.1800    1.7320   -2.2810 C   0  0  0  0  0  0  0  0  0  0  0  0
    6.0570    0.5790   -2.1900 N   0  0  0  0  0  0  0  0  0  0  0  0
    5.4960   -0.4280   -1.2900 C   0  0  2  0  0  0  0  0  0  0  0  0
    4.0340   -0.5070   -1.4610 C   0  0  0  0  0  0  0  0  0  0  0  0
    3.1560   -0.3830   -0.4970 C   0  0  0  0  0  0  0  0  0  0  0  0
    1.7100   -0.4770   -0.7570 C   0  0  0  0  0  0  0  0  0  0  0  0
    0.8600   -0.3520    0.2010 N   0  0  0  0  0  0  0  0  0  0  0  0
   -0.5310   -0.4370   -0.0200 C   0  0  0  0  0  0  0  0  0  0  0  0
   -1.5180    0.4580    0.3330 C   0  0  0  0  0  0  0  0  0  0  0  0
   -2.6830   -0.0570   -0.0890 N   0  0  0  0  0  0  0  0  0  0  0  0
   -3.9900    0.5160    0.0520 C   0  0  1  0  0  0  0  0  0  0  0  0
   -4.9050   -0.2540    0.9620 C   0  0  0  0  0  0  0  0  0  0  0  0
   -6.3280    0.0670    0.5680 C   0  0  0  0  0  0  0  0  0  0  0  0
   -6.3960    1.4100   -0.0700 C   0  0  0  0  0  0  0  0  0  0  0  0
   -5.4340    2.4160    0.5140 C   0  0  0  0  0  0  0  0  0  0  0  0
   -4.0050    1.9460    0.4570 C   0  0  1  0  0  0  0  0  0  0  0  0
   -3.4120    2.2120    1.6640 O   0  0  0  0  0  0  0  0  0  0  0  0
   -2.4750   -1.2600   -0.7050 C   0  0  0  0  0  0  0  0  0  0  0  0
   -3.3200   -2.1740   -1.3010 C   0  0  0  0  0  0  0  0  0  0  0  0
   -2.8310   -3.3340   -1.8590 C   0  0  0  0  0  0  0  0  0  0  0  0
   -1.4720   -3.5620   -1.8090 C   0  0  0  0  0  0  0  0  0  0  0  0
   -0.6110   -2.6690   -1.2230 C   0  0  0  0  0  0  0  0  0  0  0  0
   -1.1230   -1.5240   -0.6760 C   0  0  0  0  0  0  0  0  0  0  0  0
    3.6130   -0.1420    0.8650 C   0  0  0  0  0  0  0  0  0  0  0  0
    4.8870   -0.0540    1.1070 C   0  0  0  0  0  0  0  0  0  0  0  0
    5.9550   -0.1790    0.0990 C   0  0  0  0  0  0  0  0  0  0  0  0
    5.4340    0.2530    2.7970 S   0  0  0  0  0  0  0  0  0  0  0  0
    3.9380    0.5330    3.7810 C   0  0  1  0  0  0  0  0  0  0  0  0
    4.1670    0.2840    5.1160 F   0  0  0  0  0  0  0  0  0  0  0  0
    3.3670    2.1740    3.4730 Cl  0  0  0  0  0  0  0  0  0  0  0  0
    2.8990   -0.4380    3.2170 C   0  0  0  0  0  0  0  0  0  0  0  0
    2.6600   -0.0150    1.8690 O   0  0  0  0  0  0  0  0  0  0  0  0
  1  2  1  0
  3  2  1  6
  3  4  1  0
  3 26  1  0
  4  5  2  0
  5  6  1  0
  5 24  1  0
  6  7  2  3
  7  8  1  0
  8  9  2  0
  8 23  1  0
  9 10  1  0
 11 10  1  1
 10 18  1  0
 11 12  1  0
 11 16  1  0
 12 13  1  0
 13 14  1  0
 14 15  1  0
 15 16  1  0
 16 17  1  1
 18 19  2  0
 18 23  1  0
 19 20  1  0
 20 21  2  0
 21 22  1  0
 22 23  2  0
 24 25  2  0
 24 32  1  0
 25 26  1  0
 25 27  1  0
 27 28  1  0
 28 29  1  1
 28 30  1  0
 28 31  1  0
 31 32  1  0
M  CHG  1   2   1
M  END
