
     RDKit          3D

 25 28  0  0  0  0  0  0  0  0999 V2000
   -2.0680   -2.4540   -1.2090 C   0  0  0  0  0  0  0  0  0  0  0  0
   -3.0010   -1.4950   -0.6220 C   0  0  0  0  0  0  0  0  0  0  0  0
   -4.3880   -1.6220   -0.7860 C   0  0  0  0  0  0  0  0  0  0  0  0
   -5.2540   -0.7080   -0.2400 C   0  0  0  0  0  0  0  0  0  0  0  0
   -6.6170   -0.8330   -0.4030 C   0  0  0  0  0  0  0  0  0  0  0  0
   -7.1300   -1.8580   -1.1030 F   0  0  0  0  0  0  0  0  0  0  0  0
   -7.4920    0.0920    0.1490 C   0  0  0  0  0  0  0  0  0  0  0  0
   -6.9900    1.1610    0.8770 C   0  0  0  0  0  0  0  0  0  0  0  0
   -5.6240    1.3020    1.0500 C   0  0  0  0  0  0  0  0  0  0  0  0
   -4.7960    0.3540    0.4800 C   0  0  0  0  0  0  0  0  0  0  0  0
   -3.4220    0.5060    0.6610 C   0  0  0  0  0  0  0  0  0  0  0  0
   -2.6930    1.4220    1.2990 N   0  0  0  0  0  0  0  0  0  0  0  0
   -1.4030    1.1710    1.2100 N   0  0  0  0  0  0  0  0  0  0  0  0
   -1.2730    0.0480    0.4860 C   0  0  0  0  0  0  0  0  0  0  0  0
   -0.0530   -0.6840    0.1470 C   0  0  0  0  0  0  0  0  0  0  0  0
    1.1930   -0.0520    0.5180 N   0  0  0  0  0  0  0  0  0  0  0  0
    1.4800    1.0830   -0.2820 C   0  0  0  0  0  0  0  0  0  0  0  0
    2.9010    1.5980   -0.1010 C   0  0  0  0  0  0  0  0  0  0  0  0
    3.8490    0.5560    0.1410 N   0  0  2  0  0  0  0  0  0  0  0  0
    5.1730    0.7970   -0.3330 C   0  0  1  0  0  0  0  0  0  0  0  0
    5.7840    1.9410    0.4210 C   0  0  0  0  0  0  0  0  0  0  0  0
    6.0040   -0.4450    0.0040 C   0  0  0  0  0  0  0  0  0  0  0  0
    3.2940   -0.6580   -0.4800 C   0  0  0  0  0  0  0  0  0  0  0  0
    2.1960   -1.0930    0.4760 C   0  0  0  0  0  0  0  0  0  0  0  0
   -2.5430   -0.4190    0.1090 C   0  0  0  0  0  0  0  0  0  0  0  0
  1  2  1  0
  2  3  2  0
  2 25  1  0
  3  4  1  0
  4  5  2  0
  4 10  1  0
  5  6  1  0
  5  7  1  0
  7  8  2  0
  8  9  1  0
  9 10  2  0
 10 11  1  0
 11 12  2  0
 11 25  1  0
 12 13  1  0
 13 14  1  0
 14 15  1  0
 14 25  2  0
 15 16  1  0
 16 17  1  0
 16 24  1  0
 17 18  1  0
 19 18  1  6
 19 20  1  0
 19 23  1  0
 20 21  1  1
 20 22  1  0
 23 24  1  0
M  CHG  1  19   1
M  END
