
     RDKit          3D

 26 29  0  0  0  0  0  0  0  0999 V2000
   -6.4560    2.5380   -0.7210 C   0  0  0  0  0  0  0  0  0  0  0  0
   -5.3650    1.5870   -0.3300 C   0  0  0  0  0  0  0  0  0  0  0  0
   -5.0720    1.3550    0.9950 C   0  0  0  0  0  0  0  0  0  0  0  0
   -4.0750    0.4870    1.3650 C   0  0  0  0  0  0  0  0  0  0  0  0
   -3.7160    0.2030    3.0610 Cl  0  0  0  0  0  0  0  0  0  0  0  0
   -3.2970   -0.2140    0.4320 C   0  0  0  0  0  0  0  0  0  0  0  0
   -2.2590   -1.1500    0.9110 C   0  0  0  0  0  0  0  0  0  0  0  0
   -1.4810   -1.7840   -0.1260 N   0  0  0  0  0  0  0  0  0  0  0  0
   -0.6180   -2.8120    0.4640 C   0  0  0  0  0  0  0  0  0  0  0  0
    0.2970   -2.2800    1.5080 C   0  0  0  0  0  0  0  0  0  0  0  0
    1.0390   -1.0750    0.9860 C   0  0  0  0  0  0  0  0  0  0  0  0
    0.8180   -0.9160   -0.4820 C   0  0  2  0  0  0  0  0  0  0  0  0
    1.4640    0.3130   -1.0540 C   0  0  0  0  0  0  0  0  0  0  0  0
    2.9110    0.3800   -0.8980 C   0  0  0  0  0  0  0  0  0  0  0  0
    3.8300   -0.1060   -1.7950 C   0  0  0  0  0  0  0  0  0  0  0  0
    5.1740    0.0250   -1.5200 C   0  0  0  0  0  0  0  0  0  0  0  0
    5.6340    0.6130   -0.4030 N   0  0  0  0  0  0  0  0  0  0  0  0
    6.8520    0.8720    0.1110 C   0  0  0  0  0  0  0  0  0  0  0  0
    6.7290    1.4980    1.2870 N   0  0  0  0  0  0  0  0  0  0  0  0
    5.4540    1.6380    1.5260 N   0  0  0  0  0  0  0  0  0  0  0  0
    4.7610    1.0950    0.4890 C   0  0  0  0  0  0  0  0  0  0  0  0
    3.4100    0.9790    0.2420 C   0  0  0  0  0  0  0  0  0  0  0  0
   -0.6590   -0.8320   -0.8560 C   0  0  0  0  0  0  0  0  0  0  0  0
   -3.6020    0.0270   -0.8850 C   0  0  0  0  0  0  0  0  0  0  0  0
   -4.6190    0.9140   -1.2680 C   0  0  0  0  0  0  0  0  0  0  0  0
   -4.8870    1.1240   -2.5700 F   0  0  0  0  0  0  0  0  0  0  0  0
  1  2  1  0
  2  3  2  0
  2 25  1  0
  3  4  1  0
  4  5  1  0
  4  6  2  0
  6  7  1  0
  6 24  1  0
  7  8  1  0
  8  9  1  0
  8 23  1  0
  9 10  1  0
 10 11  1  0
 11 12  1  0
 12 13  1  1
 12 23  1  0
 13 14  1  0
 14 15  1  0
 14 22  2  0
 15 16  2  0
 16 17  1  0
 17 18  1  0
 17 21  1  0
 18 19  2  0
 19 20  1  0
 20 21  2  0
 21 22  1  0
 24 25  2  0
 25 26  1  0
M  CHG  1  19   1
M  END
