
     RDKit          3D

 10 11  0  0  0  0  0  0  0  0999 V2000
   -1.5380    1.6170   -0.0660 N   0  0  0  0  0  0  0  0  0  0  0  0
   -0.8770    0.3600   -0.0180 C   0  0  0  0  0  0  0  0  0  0  0  0
   -1.5410   -0.8400    0.0200 C   0  0  0  0  0  0  0  0  0  0  0  0
   -0.8830   -2.0120    0.0660 N   0  0  0  0  0  0  0  0  0  0  0  0
    0.4290   -2.1240    0.0780 N   0  0  0  0  0  0  0  0  0  0  0  0
    1.1590   -1.0000    0.0420 C   0  0  0  0  0  0  0  0  0  0  0  0
    2.4750   -0.7500    0.0420 N   0  0  0  0  0  0  0  0  0  0  0  0
    2.6930    0.5600   -0.0030 N   0  0  0  0  0  0  0  0  0  0  0  0
    1.5170    1.2270   -0.0340 C   0  0  0  0  0  0  0  0  0  0  0  0
    0.5120    0.3070   -0.0080 C   0  0  0  0  0  0  0  0  0  0  0  0
  1  2  1  0
  2  3  1  0
  2 10  2  0
  3  4  2  0
  4  5  1  0
  5  6  1  0
  6  7  2  0
  6 10  1  0
  7  8  1  0
  8  9  2  0
  9 10  1  0
M  END
