
     RDKit          3D

 26 29  0  0  0  0  0  0  0  0999 V2000
    3.9240    1.6570   -2.7390 C   0  0  0  0  0  0  0  0  0  0  0  0
    3.7540    1.1790   -1.3470 C   0  0  0  0  0  0  0  0  0  0  0  0
    3.0060    0.0680   -1.0530 C   0  0  0  0  0  0  0  0  0  0  0  0
    2.8270   -0.4100    0.2630 C   0  0  0  0  0  0  0  0  0  0  0  0
    2.0750   -1.6500    0.3820 C   0  0  0  0  0  0  0  0  0  0  0  0
    2.3320   -2.6940   -0.5030 N   0  0  0  0  0  0  0  0  0  0  0  0
    1.4700   -3.6700   -0.2180 C   0  0  0  0  0  0  0  0  0  0  0  0
    0.7080   -3.2730    0.7860 N   0  0  0  0  0  0  0  0  0  0  0  0
    1.0750   -2.0180    1.1630 N   0  0  0  0  0  0  0  0  0  0  0  0
    0.3540   -1.2650    2.1550 C   0  0  0  0  0  0  0  0  0  0  0  0
   -0.8770   -0.6640    1.4630 C   0  0  0  0  0  0  0  0  0  0  0  0
   -1.0700   -0.9010    0.1890 C   0  0  0  0  0  0  0  0  0  0  0  0
   -2.2430   -0.3320   -0.4810 C   0  0  0  0  0  0  0  0  0  0  0  0
   -2.4420   -0.5880   -1.8360 C   0  0  0  0  0  0  0  0  0  0  0  0
   -3.5360   -0.0600   -2.4700 C   0  0  0  0  0  0  0  0  0  0  0  0
   -4.4150    0.7090   -1.7640 C   0  0  0  0  0  0  0  0  0  0  0  0
   -4.2660    0.9920   -0.4260 C   0  0  0  0  0  0  0  0  0  0  0  0
   -5.2390    1.8310    0.3120 C   0  0  0  0  0  0  0  0  0  0  0  0
   -3.1440    0.4460    0.2080 C   0  0  0  0  0  0  0  0  0  0  0  0
   -2.9220    0.6920    1.5800 N   0  0  0  0  0  0  0  0  0  0  0  0
   -1.7880    0.1550    2.2700 C   0  0  0  0  0  0  0  0  0  0  0  0
    3.4450    0.2900    1.2540 C   0  0  0  0  0  0  0  0  0  0  0  0
    3.4670   -0.2270    2.9150 Cl  0  0  0  0  0  0  0  0  0  0  0  0
    4.2080    1.4240    0.9620 C   0  0  0  0  0  0  0  0  0  0  0  0
    4.3670    1.8730   -0.3270 C   0  0  0  0  0  0  0  0  0  0  0  0
    5.1090    2.9760   -0.6070 F   0  0  0  0  0  0  0  0  0  0  0  0
  1  2  1  0
  2  3  2  0
  2 25  1  0
  3  4  1  0
  4  5  1  0
  4 22  2  0
  5  6  2  0
  5  9  1  0
  6  7  1  0
  7  8  2  0
  8  9  1  0
  9 10  1  0
 10 11  1  0
 11 12  2  0
 11 21  1  0
 12 13  1  0
 13 14  2  0
 13 19  1  0
 14 15  1  0
 15 16  2  0
 16 17  1  0
 17 18  1  0
 17 19  2  0
 19 20  1  0
 20 21  1  0
 22 23  1  0
 22 24  1  0
 24 25  2  0
 25 26  1  0
M  CHG  1   6   1
M  END
