
     RDKit          3D

 14 16  0  0  0  0  0  0  0  0999 V2000
    4.1260   -0.0980   -0.2980 C   0  0  0  0  0  0  0  0  0  0  0  0
    3.4140    1.0660   -0.5550 C   0  0  0  0  0  0  0  0  0  0  0  0
    2.0250    1.0570   -0.5150 C   0  0  0  0  0  0  0  0  0  0  0  0
    1.3250   -0.0930   -0.2230 C   0  0  0  0  0  0  0  0  0  0  0  0
   -0.1450   -0.0720   -0.1880 C   0  0  0  0  0  0  0  0  0  0  0  0
   -0.9270    1.0340   -0.4290 C   0  0  0  0  0  0  0  0  0  0  0  0
   -2.2290    0.6990   -0.3140 N   0  0  0  0  0  0  0  0  0  0  0  0
   -3.4840    1.2070   -0.4010 C   0  0  0  0  0  0  0  0  0  0  0  0
   -4.3820    0.1930   -0.1350 C   0  0  0  0  0  0  0  0  0  0  0  0
   -3.6110   -0.9210    0.1090 C   0  0  0  0  0  0  0  0  0  0  0  0
   -2.2560   -0.5950   -0.0060 C   0  0  0  0  0  0  0  0  0  0  0  0
   -0.9890   -1.0690    0.0720 N   0  0  0  0  0  0  0  0  0  0  0  0
    2.0470   -1.2330    0.0290 C   0  0  0  0  0  0  0  0  0  0  0  0
    3.4360   -1.2470   -0.0060 C   0  0  0  0  0  0  0  0  0  0  0  0
  1  2  2  0
  1 14  1  0
  2  3  1  0
  3  4  2  0
  4  5  1  0
  4 13  1  0
  5  6  2  0
  5 12  1  0
  6  7  1  0
  7  8  1  0
  7 11  1  0
  8  9  2  0
  9 10  1  0
 10 11  2  0
 11 12  1  0
 13 14  2  0
M  END
