
     RDKit          3D

 27 29  0  0  0  0  0  0  0  0999 V2000
   -8.4270    1.5390    0.2150 C   0  0  0  0  0  0  0  0  0  0  0  0
   -7.6920    0.2660   -0.1890 C   0  0  0  0  0  0  0  0  0  0  0  0
   -8.2790   -0.8290   -0.1590 N   0  0  0  0  0  0  0  0  0  0  0  0
   -7.7780   -2.5390   -0.5560 Br  0  0  0  0  0  0  0  0  0  0  0  0
   -6.3560    0.3940   -0.5920 N   0  0  0  0  0  0  0  0  0  0  0  0
   -5.3900   -0.6830   -0.3740 C   0  0  0  0  0  0  0  0  0  0  0  0
   -4.0530   -0.0210   -0.8170 C   0  0  0  0  0  0  0  0  0  0  0  0
   -2.9290   -0.9660   -0.6130 C   0  0  0  0  0  0  0  0  0  0  0  0
   -2.7680   -1.2850    0.7910 N   0  0  0  0  0  0  0  0  0  0  0  0
   -1.8400   -0.4220    1.4770 C   0  0  0  0  0  0  0  0  0  0  0  0
   -1.0270    0.4630    0.6030 C   0  0  0  0  0  0  0  0  0  0  0  0
   -1.2390    1.5420   -0.1800 C   0  0  0  0  0  0  0  0  0  0  0  0
   -0.0070    2.0320   -0.6150 C   0  0  0  0  0  0  0  0  0  0  0  0
    0.8960    1.2590   -0.0930 O   0  0  0  0  0  0  0  0  0  0  0  0
    0.3380    0.3270    0.6200 C   0  0  0  0  0  0  0  0  0  0  0  0
    1.1360   -0.7860    1.3620 C   0  0  0  0  0  0  0  0  0  0  0  0
    2.3370   -0.6030    0.8940 O   0  0  0  0  0  0  0  0  0  0  0  0
    3.5440   -0.7820    0.5320 C   0  0  0  0  0  0  0  0  0  0  0  0
    4.1440   -2.0320    0.5450 C   0  0  0  0  0  0  0  0  0  0  0  0
    5.4590   -2.2240    0.1140 C   0  0  0  0  0  0  0  0  0  0  0  0
    6.1770   -1.1560   -0.3330 C   0  0  0  0  0  0  0  0  0  0  0  0
    5.6170    0.0890   -0.3570 C   0  0  0  0  0  0  0  0  0  0  0  0
    4.3400    0.2890    0.0670 C   0  0  0  0  0  0  0  0  0  0  0  0
    6.3330    1.2280   -0.9260 C   0  0  0  0  0  0  0  0  0  0  0  0
    7.7560    1.4310   -0.6650 C   0  0  0  0  0  0  0  0  0  0  0  0
    8.5550    0.3140   -0.1120 C   0  0  0  0  0  0  0  0  0  0  0  0
    7.8740   -1.2320   -0.8860 S   0  0  0  0  0  0  0  0  0  0  0  0
  1  2  1  0
  2  3  2  3
  2  5  1  0
  3  4  1  0
  5  6  1  0
  6  7  1  0
  7  8  1  0
  8  9  1  0
  9 10  1  0
 10 11  1  0
 11 12  1  0
 11 15  2  0
 12 13  2  0
 13 14  1  0
 14 15  1  0
 15 16  1  0
 16 17  1  0
 17 18  1  0
 18 19  2  0
 18 23  1  0
 19 20  1  0
 20 21  2  0
 21 22  1  0
 21 27  1  0
 22 23  2  0
 22 24  1  0
 24 25  1  0
 25 26  1  0
 26 27  1  0
M  CHG  1   9   1
M  END
