
     RDKit          3D

 27 28  0  0  0  0  0  0  0  0999 V2000
    6.0590    1.4620    1.6030 C   0  0  0  0  0  0  0  0  0  0  0  0
    5.2660    0.5480    1.1220 C   0  0  0  0  0  0  0  0  0  0  0  0
    5.3480   -0.7770    1.4820 N   0  0  0  0  0  0  0  0  0  0  0  0
    4.4320   -1.4730    0.8530 C   0  0  0  0  0  0  0  0  0  0  0  0
    4.2270   -2.9360    0.9980 C   0  0  0  0  0  0  0  0  0  0  0  0
    5.1140   -3.5120    1.8680 O   0  0  0  0  0  0  0  0  0  0  0  0
    3.7100   -0.5880    0.0450 C   0  0  0  0  0  0  0  0  0  0  0  0
    2.6490   -1.1050   -0.7970 C   0  0  0  0  0  0  0  0  0  0  0  0
    1.7800   -0.2850   -1.5290 N   0  0  0  0  0  0  0  0  0  0  0  0
    0.7100    0.4600   -0.8970 C   0  0  0  0  0  0  0  0  0  0  0  0
    0.5680    0.3650    0.3170 O   0  0  0  0  0  0  0  0  0  0  0  0
   -0.1880    1.3160   -1.7280 C   0  0  0  0  0  0  0  0  0  0  0  0
   -1.3940    0.2130   -2.5400 S   0  0  0  0  0  0  0  0  0  0  0  0
   -2.4630   -0.5590   -1.3670 C   0  0  0  0  0  0  0  0  0  0  0  0
   -2.1680   -1.7330   -0.7210 C   0  0  0  0  0  0  0  0  0  0  0  0
   -3.0730   -2.2740    0.1650 C   0  0  0  0  0  0  0  0  0  0  0  0
   -4.2520   -1.6800    0.4170 N   0  0  0  0  0  0  0  0  0  0  0  0
   -4.6040   -0.5020   -0.2010 C   0  0  0  0  0  0  0  0  0  0  0  0
   -5.8930    0.0770    0.1030 C   0  0  0  0  0  0  0  0  0  0  0  0
   -6.4310    1.1590   -0.3310 C   0  0  0  0  0  0  0  0  0  0  0  0
   -5.9730    2.1930   -1.2700 C   0  0  0  0  0  0  0  0  0  0  0  0
   -6.7560   -0.7230    1.0900 C   0  0  0  0  0  0  0  0  0  0  0  0
   -8.4240    0.1380    1.4120 Br  0  0  0  0  0  0  0  0  0  0  0  0
   -3.7140    0.0380   -1.0760 C   0  0  0  0  0  0  0  0  0  0  0  0
    4.2270    0.7040    0.1990 C   0  0  0  0  0  0  0  0  0  0  0  0
    3.8210    1.7880   -0.4280 C   0  0  0  0  0  0  0  0  0  0  0  0
    4.3820    3.1280   -0.2920 C   0  0  0  0  0  0  0  0  0  0  0  0
  1  2  2  0
  2  3  1  0
  2 25  1  0
  3  4  1  0
  4  5  1  0
  4  7  2  0
  5  6  1  0
  7  8  1  0
  7 25  1  0
  8  9  1  0
  9 10  1  0
 10 11  2  0
 10 12  1  0
 12 13  1  0
 13 14  1  0
 14 15  2  0
 14 24  1  0
 15 16  1  0
 16 17  2  0
 17 18  1  0
 18 19  1  0
 18 24  2  0
 19 20  2  3
 19 22  1  0
 20 21  1  0
 22 23  1  0
 25 26  2  3
 26 27  1  0
M  CHG  1  17   1
M  END
