
     RDKit          3D

 13 14  0  0  0  0  0  0  0  0999 V2000
   -3.0920    0.5280   -0.9010 N   0  0  0  0  0  0  0  0  0  0  0  0
   -2.7960    0.6730    0.4680 C   0  0  0  0  0  0  0  0  0  0  0  0
   -3.6950    1.0130    1.2710 O   0  0  0  0  0  0  0  0  0  0  0  0
   -1.4560    0.4380    0.9950 C   0  0  0  0  0  0  0  0  0  0  0  0
   -1.0380    0.5380    2.2570 N   0  0  0  0  0  0  0  0  0  0  0  0
    0.2500    0.2470    2.3530 N   0  0  0  0  0  0  0  0  0  0  0  0
    0.7530   -0.0650    1.1290 C   0  0  0  0  0  0  0  0  0  0  0  0
    2.0100   -0.4330    0.6860 C   0  0  0  0  0  0  0  0  0  0  0  0
    2.2330   -0.6960   -0.6490 C   0  0  0  0  0  0  0  0  0  0  0  0
    3.8540   -1.1770   -1.2630 S   0  0  0  0  0  0  0  0  0  0  0  0
    1.1480   -0.5720   -1.4970 C   0  0  0  0  0  0  0  0  0  0  0  0
   -0.1070   -0.2050   -1.0590 C   0  0  0  0  0  0  0  0  0  0  0  0
   -0.3240    0.0560    0.2740 C   0  0  0  0  0  0  0  0  0  0  0  0
  1  2  1  0
  2  3  2  0
  2  4  1  0
  4  5  2  0
  4 13  1  0
  5  6  1  0
  6  7  1  0
  7  8  2  0
  7 13  1  0
  8  9  1  0
  9 10  1  0
  9 11  2  0
 11 12  1  0
 12 13  2  0
M  END
