
     RDKit          3D

 13 13  0  0  0  0  0  0  0  0999 V2000
   -3.9660   -0.2970   -1.3240 C   0  0  0  0  0  0  0  0  0  0  0  0
   -3.3810   -0.4420   -0.1590 C   0  0  0  0  0  0  0  0  0  0  0  0
   -1.9500   -0.2800    0.0460 C   0  0  0  0  0  0  0  0  0  0  0  0
   -1.1340    0.0380   -0.9990 C   0  0  0  0  0  0  0  0  0  0  0  0
    0.2420    0.1850   -0.7590 C   0  0  0  0  0  0  0  0  0  0  0  0
    0.8160    0.0250    0.4760 C   0  0  0  0  0  0  0  0  0  0  0  0
    2.1820    0.1650    0.7440 N   0  0  0  0  0  0  0  0  0  0  0  0
    3.2460    0.4780   -0.0910 C   0  0  0  0  0  0  0  0  0  0  0  0
    4.5920    0.5590    0.4650 N   0  0  0  0  0  0  0  0  0  0  0  0
    3.1920    0.7810   -1.6850 S   0  0  0  0  0  0  0  0  0  0  0  0
   -0.0950   -0.3020    1.4960 C   0  0  0  0  0  0  0  0  0  0  0  0
    0.3820   -0.4590    2.6490 O   0  0  0  0  0  0  0  0  0  0  0  0
   -1.4060   -0.4460    1.2880 N   0  0  0  0  0  0  0  0  0  0  0  0
  1  2  2  0
  2  3  1  0
  3  4  2  0
  3 13  1  0
  4  5  1  0
  5  6  2  0
  6  7  1  0
  6 11  1  0
  7  8  1  0
  8  9  1  0
  8 10  2  0
 11 12  2  0
 11 13  1  0
M  END
