
     RDKit          3D

 13 14  0  0  0  0  0  0  0  0999 V2000
    2.7730   -2.2190    0.6330 N   0  0  0  0  0  0  0  0  0  0  0  0
    1.9330   -1.0820    0.4130 C   0  0  0  0  0  0  0  0  0  0  0  0
    2.4950    0.1590    0.2560 C   0  0  0  0  0  0  0  0  0  0  0  0
    1.7160    1.2220    0.0510 N   0  0  0  0  0  0  0  0  0  0  0  0
    0.3330    1.1400   -0.0130 C   0  0  0  0  0  0  0  0  0  0  0  0
   -0.4830    2.2330   -0.2240 C   0  0  0  0  0  0  0  0  0  0  0  0
   -0.1450    3.5900   -0.4120 N   0  0  0  0  0  0  0  0  0  0  0  0
   -2.1310    1.5490   -0.2110 S   0  0  0  0  0  0  0  0  0  0  0  0
   -1.6220   -0.1360    0.0730 C   0  0  0  0  0  0  0  0  0  0  0  0
   -2.5420   -1.2890    0.1970 C   0  0  0  0  0  0  0  0  0  0  0  0
   -3.8420   -0.8180    0.0540 O   0  0  0  0  0  0  0  0  0  0  0  0
   -0.2560   -0.0510    0.1360 C   0  0  0  0  0  0  0  0  0  0  0  0
    0.5670   -1.1800    0.3530 C   0  0  0  0  0  0  0  0  0  0  0  0
  1  2  1  0
  2  3  1  0
  2 13  2  0
  3  4  2  0
  4  5  1  0
  5  6  2  0
  5 12  1  0
  6  7  1  0
  6  8  1  0
  8  9  1  0
  9 10  1  0
  9 12  2  0
 10 11  1  0
 12 13  1  0
M  END
