
     RDKit          3D

 13 13  0  0  0  0  0  0  0  0999 V2000
   -2.7610    1.7830   -0.6120 N   0  0  0  0  0  0  0  0  0  0  0  0
   -3.0370    0.3780   -0.5320 C   0  0  0  0  0  0  0  0  0  0  0  0
   -1.8010   -0.4110   -0.1780 C   0  0  0  0  0  0  0  0  0  0  0  0
   -1.7510   -1.1290    0.8930 N   0  0  0  0  0  0  0  0  0  0  0  0
   -2.8640   -1.1460    1.6940 O   0  0  0  0  0  0  0  0  0  0  0  0
   -0.6690   -0.3870   -1.0190 N   0  0  0  0  0  0  0  0  0  0  0  0
    0.6410   -0.3180   -0.4970 C   0  0  0  0  0  0  0  0  0  0  0  0
    1.7310   -0.4180   -1.3760 C   0  0  0  0  0  0  0  0  0  0  0  0
    3.0390   -0.3520   -0.9480 C   0  0  0  0  0  0  0  0  0  0  0  0
    3.3270   -0.1820    0.3910 C   0  0  0  0  0  0  0  0  0  0  0  0
    5.0000   -0.0910    1.0000 S   0  0  0  0  0  0  0  0  0  0  0  0
    2.2850   -0.0810    1.2810 C   0  0  0  0  0  0  0  0  0  0  0  0
    0.9780   -0.1500    0.8220 C   0  0  0  0  0  0  0  0  0  0  0  0
  1  2  1  0
  2  3  1  0
  3  4  2  3
  3  6  1  0
  4  5  1  0
  6  7  1  0
  7  8  2  0
  7 13  1  0
  8  9  1  0
  9 10  2  0
 10 11  1  0
 10 12  1  0
 12 13  2  0
M  END
