
     RDKit          3D

 19 21  0  0  0  0  0  0  0  0999 V2000
   -1.1930   -2.7160   -1.0780 O   0  0  0  0  0  0  0  0  0  0  0  0
   -0.8670   -1.5080   -1.0600 C   0  0  0  0  0  0  0  0  0  0  0  0
    0.2530   -0.9460   -1.8990 C   0  0  0  0  0  0  0  0  0  0  0  0
    0.3320    0.4920   -1.5440 C   0  0  2  0  0  0  0  0  0  0  0  0
    1.6690    1.0020   -1.4180 N   0  0  0  0  0  0  0  0  0  0  0  0
    2.6250    0.5280   -0.5080 C   0  0  0  0  0  0  0  0  0  0  0  0
    2.2450   -0.6800    0.4980 S   0  0  0  0  0  0  0  0  0  0  0  0
    3.9670    1.1160   -0.4570 C   0  0  1  0  0  0  0  0  0  0  0  0
    4.9690    0.5800    0.5370 C   0  0  0  0  0  0  0  0  0  0  0  0
    5.1070    0.2880   -0.9210 C   0  0  0  0  0  0  0  0  0  0  0  0
   -0.4390    0.5720   -0.2740 C   0  0  0  0  0  0  0  0  0  0  0  0
   -0.2580    1.3960    0.6800 O   0  0  0  0  0  0  0  0  0  0  0  0
   -1.4320   -0.4460   -0.3010 N   0  0  0  0  0  0  0  0  0  0  0  0
   -2.7350   -0.4200    0.3050 C   0  0  0  0  0  0  0  0  0  0  0  0
   -3.1700    0.6180    0.9920 C   0  0  0  0  0  0  0  0  0  0  0  0
   -4.4980    0.7190    1.6440 C   0  0  0  0  0  0  0  0  0  0  0  0
   -5.2900   -0.4180    1.4650 O   0  0  0  0  0  0  0  0  0  0  0  0
   -4.8750   -1.5260    0.7540 C   0  0  0  0  0  0  0  0  0  0  0  0
   -3.6520   -1.5470    0.1890 C   0  0  0  0  0  0  0  0  0  0  0  0
  1  2  2  0
  2  3  1  0
  2 13  1  0
  3  4  1  0
  4  5  1  1
  4 11  1  0
  5  6  1  0
  6  7  2  0
  8  6  1  1
  8  9  1  0
  8 10  1  0
  9 10  1  0
 11 12  2  0
 11 13  1  0
 13 14  1  0
 14 15  2  0
 14 19  1  0
 15 16  1  0
 16 17  1  0
 17 18  1  0
 18 19  2  0
M  END
