
     RDKit          3D

 19 20  0  0  0  0  0  0  0  0999 V2000
   -2.7030   -0.7030    1.3220 C   0  0  0  0  0  0  0  0  0  0  0  0
   -1.6720   -0.3650    0.3190 N   0  0  0  0  0  0  0  0  0  0  0  0
   -0.7530   -1.4210    0.2960 C   0  0  0  0  0  0  0  0  0  0  0  0
   -0.2000   -1.7220   -1.0230 C   0  0  0  0  0  0  0  0  0  0  0  0
    1.0860   -1.6230   -1.3550 C   0  0  0  0  0  0  0  0  0  0  0  0
    2.2170   -1.2080   -0.5470 C   0  0  0  0  0  0  0  0  0  0  0  0
    3.1640   -2.0450   -0.0670 C   0  0  0  0  0  0  0  0  0  0  0  0
    4.1270   -1.2560    0.6960 C   0  0  0  0  0  0  0  0  0  0  0  0
    3.6570    0.1230    0.5880 C   0  0  0  0  0  0  0  0  0  0  0  0
    2.5330    0.1610   -0.1400 C   0  0  0  0  0  0  0  0  0  0  0  0
    1.8410    1.3450   -0.5090 N   0  0  0  0  0  0  0  0  0  0  0  0
    0.4960    1.7130   -0.4040 C   0  0  0  0  0  0  0  0  0  0  0  0
   -0.1250    1.9260   -1.5180 O   0  0  0  0  0  0  0  0  0  0  0  0
   -0.3290    1.8990    0.8120 C   0  0  0  0  0  0  0  0  0  0  0  0
   -1.9780    2.3680    0.3720 S   0  0  2  0  0  0  0  0  0  0  0  0
   -1.9530    3.8480    0.0140 O   0  0  0  0  0  0  0  0  0  0  0  0
   -2.8350    2.2480    1.5940 O   0  0  0  0  0  0  0  0  0  0  0  0
   -2.6970    1.4260   -0.9190 C   0  0  0  0  0  0  0  0  0  0  0  0
   -2.2590   -0.0170   -0.9330 C   0  0  0  0  0  0  0  0  0  0  0  0
  1  2  1  0
  2  3  1  0
  2 19  1  0
  3  4  1  0
  4  5  2  0
  5  6  1  0
  6  7  2  0
  6 10  1  0
  7  8  1  0
  8  9  1  0
  9 10  2  0
 10 11  1  0
 11 12  1  0
 12 13  2  0
 12 14  1  0
 15 14  1  1
 15 16  2  0
 15 17  2  0
 15 18  1  0
 18 19  1  0
M  END
