
     RDKit          3D

 19 21  0  0  0  0  0  0  0  0999 V2000
   -5.3100    0.6160   -0.0690 N   0  0  0  0  0  0  0  0  0  0  0  0
   -4.5170   -0.1570    0.8840 C   0  0  0  0  0  0  0  0  0  0  0  0
   -3.1640   -0.4210    0.2900 C   0  0  2  0  0  0  0  0  0  0  0  0
   -2.3830    0.8770    0.0830 C   0  0  0  0  0  0  0  0  0  0  0  0
   -0.9990    0.4180   -0.1630 N   0  0  0  0  0  0  0  0  0  0  0  0
    0.0240    0.9830    0.5960 C   0  0  0  0  0  0  0  0  0  0  0  0
   -0.3250    1.8710    1.4640 O   0  0  0  0  0  0  0  0  0  0  0  0
    1.4510    0.6990    0.5400 C   0  0  0  0  0  0  0  0  0  0  0  0
    2.1310   -0.1340   -0.2140 C   0  0  0  0  0  0  0  0  0  0  0  0
    3.5950   -0.0860    0.0810 C   0  0  0  0  0  0  0  0  0  0  0  0
    3.7530    0.7990    1.0300 C   0  0  0  0  0  0  0  0  0  0  0  0
    5.5320    0.8650    1.4000 S   0  0  0  0  0  0  0  0  0  0  0  0
    5.8530   -0.8110    0.6810 C   0  0  0  0  0  0  0  0  0  0  0  0
    4.8150   -0.7350   -0.4110 C   0  0  0  0  0  0  0  0  0  0  0  0
    2.4620    1.3590    1.3970 C   0  0  0  0  0  0  0  0  0  0  0  0
    2.2670    2.2390    2.2810 O   0  0  0  0  0  0  0  0  0  0  0  0
   -0.9110   -0.5780   -1.1870 C   0  0  0  0  0  0  0  0  0  0  0  0
   -2.2700   -0.8870   -1.7960 C   0  0  0  0  0  0  0  0  0  0  0  0
   -3.2450   -1.1240   -0.8760 O   0  0  0  0  0  0  0  0  0  0  0  0
  1  2  1  0
  3  2  1  6
  3  4  1  0
  3 19  1  0
  4  5  1  0
  5  6  1  0
  5 17  1  0
  6  7  2  0
  6  8  1  0
  8  9  2  0
  8 15  1  0
  9 10  1  0
 10 11  2  0
 10 14  1  0
 11 12  1  0
 11 15  1  0
 12 13  1  0
 13 14  1  0
 15 16  2  0
 17 18  1  0
 18 19  1  0
M  END
