
     RDKit          3D

 19 21  0  0  0  0  0  0  0  0999 V2000
    3.9060    2.6090   -0.5480 C   0  0  0  0  0  0  0  0  0  0  0  0
    2.9860    1.4180   -1.5920 S   0  0  0  0  0  0  0  0  0  0  0  0
    1.4970    0.8780   -0.7720 C   0  0  0  0  0  0  0  0  0  0  0  0
    1.1970   -0.3980   -0.6900 C   0  0  0  0  0  0  0  0  0  0  0  0
    2.1080   -1.4460   -1.2890 C   0  0  0  0  0  0  0  0  0  0  0  0
    2.3060   -2.4450   -0.2290 N   0  0  0  0  0  0  0  0  0  0  0  0
    1.1480   -2.9590    0.4390 C   0  0  0  0  0  0  0  0  0  0  0  0
    1.2130   -4.1240    0.9240 O   0  0  0  0  0  0  0  0  0  0  0  0
   -0.0560   -2.1460    0.5440 C   0  0  0  0  0  0  0  0  0  0  0  0
   -1.2980   -2.3500    1.0960 C   0  0  0  0  0  0  0  0  0  0  0  0
   -1.9990   -1.1870    0.8510 C   0  0  0  0  0  0  0  0  0  0  0  0
   -1.2220   -0.3020    0.1760 N   0  0  0  0  0  0  0  0  0  0  0  0
   -0.0120   -0.8800   -0.0230 C   0  0  0  0  0  0  0  0  0  0  0  0
   -1.7330    1.0010   -0.1980 C   0  0  2  0  0  0  0  0  0  0  0  0
   -1.6370    2.0070    0.9350 C   0  0  0  0  0  0  0  0  0  0  0  0
   -3.2520    0.8740   -0.4590 C   0  0  0  0  0  0  0  0  0  0  0  0
   -3.8280    0.4340    0.7870 O   0  0  0  0  0  0  0  0  0  0  0  0
   -3.3670   -0.8360    1.1880 C   0  0  0  0  0  0  0  0  0  0  0  0
   -4.1080   -1.6510    1.8200 O   0  0  0  0  0  0  0  0  0  0  0  0
  1  2  1  0
  2  3  1  0
  3  4  2  3
  4  5  1  0
  4 13  1  0
  5  6  1  0
  6  7  1  0
  7  8  2  0
  7  9  1  0
  9 10  1  0
  9 13  2  0
 10 11  2  0
 11 12  1  0
 11 18  1  0
 12 13  1  0
 12 14  1  0
 14 15  1  1
 14 16  1  0
 16 17  1  0
 17 18  1  0
 18 19  2  0
M  END
