
     RDKit          3D

 24 27  0  0  0  0  0  0  0  0999 V2000
    2.6270    1.1740   -0.9950 O   0  0  0  0  0  0  0  0  0  0  0  0
    3.2100    0.7660    0.0480 C   0  0  0  0  0  0  0  0  0  0  0  0
    2.4980    0.7910    1.2580 N   0  0  0  0  0  0  0  0  0  0  0  0
    1.1120    1.2830    1.2870 C   0  0  0  0  0  0  0  0  0  0  0  0
    0.2630    0.1940    0.7130 C   0  0  0  0  0  0  0  0  0  0  0  0
    0.7780   -1.0380    0.3500 C   0  0  0  0  0  0  0  0  0  0  0  0
   -0.0220   -2.0470   -0.1860 C   0  0  0  0  0  0  0  0  0  0  0  0
   -1.3650   -1.7800   -0.3480 C   0  0  0  0  0  0  0  0  0  0  0  0
   -1.9220   -0.5700   -0.0010 C   0  0  0  0  0  0  0  0  0  0  0  0
   -3.3720   -0.3470   -0.2000 C   0  0  0  0  0  0  0  0  0  0  0  0
   -4.0820    0.7910    0.0900 C   0  0  0  0  0  0  0  0  0  0  0  0
   -5.3860    0.6040   -0.2360 N   0  0  0  0  0  0  0  0  0  0  0  0
   -5.4670   -0.6410   -0.7220 C   0  0  0  0  0  0  0  0  0  0  0  0
   -4.2510   -1.2270   -0.7040 N   0  0  0  0  0  0  0  0  0  0  0  0
   -6.8720   -0.9030   -1.0960 C   0  0  0  0  0  0  0  0  0  0  0  0
   -7.5720    0.3530   -0.7590 C   0  0  0  0  0  0  0  0  0  0  0  0
   -6.6830    1.1890   -0.2700 C   0  0  0  0  0  0  0  0  0  0  0  0
   -1.1040    0.3900    0.5200 C   0  0  0  0  0  0  0  0  0  0  0  0
    4.5820    0.2780    0.0220 C   0  0  0  0  0  0  0  0  0  0  0  0
    5.2860    0.2290   -1.1870 C   0  0  0  0  0  0  0  0  0  0  0  0
    6.5840   -0.2230   -1.2670 C   0  0  0  0  0  0  0  0  0  0  0  0
    7.2340   -0.6460   -0.1370 C   0  0  0  0  0  0  0  0  0  0  0  0
    6.5800   -0.6150    1.0710 C   0  0  0  0  0  0  0  0  0  0  0  0
    5.2630   -0.1540    1.1330 C   0  0  0  0  0  0  0  0  0  0  0  0
  1  2  2  0
  2  3  1  0
  2 19  1  0
  3  4  1  0
  4  5  1  0
  5  6  2  0
  5 18  1  0
  6  7  1  0
  7  8  2  0
  8  9  1  0
  9 10  1  0
  9 18  2  0
 10 11  2  0
 10 14  1  0
 11 12  1  0
 12 13  1  0
 12 17  1  0
 13 14  2  0
 13 15  1  0
 15 16  1  0
 16 17  2  0
 19 20  2  0
 19 24  1  0
 20 21  1  0
 21 22  2  0
 22 23  1  0
 23 24  2  0
M  END
