
     RDKit          3D

 19 20  0  0  0  0  0  0  0  0999 V2000
    4.8660    0.7220    0.9150 C   0  0  0  0  0  0  0  0  0  0  0  0
    3.3600    0.5830    1.0090 C   0  0  0  0  0  0  0  0  0  0  0  0
    2.7770    1.2130   -0.2450 C   0  0  1  0  0  0  0  0  0  0  0  0
    3.3020    0.4930   -1.4510 C   0  0  0  0  0  0  0  0  0  0  0  0
    0.9820    1.1860   -0.1370 S   0  0  0  0  0  0  0  0  0  0  0  0
    0.4180   -0.5120   -0.1730 C   0  0  0  0  0  0  0  0  0  0  0  0
    1.2770   -1.4820   -0.2640 N   0  0  0  0  0  0  0  0  0  0  0  0
    0.8240   -2.8120   -0.2910 C   0  0  0  0  0  0  0  0  0  0  0  0
    1.6140   -3.7840   -0.0860 O   0  0  0  0  0  0  0  0  0  0  0  0
   -0.5820   -3.1390   -0.5580 C   0  0  0  0  0  0  0  0  0  0  0  0
   -1.5420   -2.0280   -0.3670 C   0  0  0  0  0  0  0  0  0  0  0  0
   -0.9790   -0.7490   -0.0980 N   0  0  0  0  0  0  0  0  0  0  0  0
   -1.8480    0.3440    0.2620 C   0  0  1  0  0  0  0  0  0  0  0  0
   -2.8680    0.6690   -0.7970 C   0  0  0  0  0  0  0  0  0  0  0  0
   -4.1090    0.9740    0.0280 C   0  0  2  0  0  0  0  0  0  0  0  0
   -4.0140    2.4130    0.5040 C   0  0  0  0  0  0  0  0  0  0  0  0
   -4.0010    0.1180    1.1380 O   0  0  0  0  0  0  0  0  0  0  0  0
   -2.6630   -0.0200    1.4700 C   0  0  0  0  0  0  0  0  0  0  0  0
   -2.1320   -0.3770    2.5530 O   0  0  0  0  0  0  0  0  0  0  0  0
  1  2  1  0
  2  3  1  0
  3  4  1  6
  3  5  1  0
  5  6  1  0
  6  7  2  0
  6 12  1  0
  7  8  1  0
  8  9  2  0
  8 10  1  0
 10 11  1  0
 11 12  1  0
 13 12  1  6
 13 14  1  0
 13 18  1  0
 14 15  1  0
 15 16  1  1
 15 17  1  0
 17 18  1  0
 18 19  2  0
M  END
