
     RDKit          3D

 19 20  0  0  0  0  0  0  0  0999 V2000
   -2.9240   -0.6310    1.1350 C   0  0  0  0  0  0  0  0  0  0  0  0
   -2.1770   -0.0260    0.2540 C   0  0  0  0  0  0  0  0  0  0  0  0
   -2.3400    1.3820    0.0690 N   0  0  0  0  0  0  0  0  0  0  0  0
   -1.4020    2.3110   -0.4460 C   0  0  2  0  0  0  0  0  0  0  0  0
   -1.6750    2.5320   -1.9290 C   0  0  0  0  0  0  0  0  0  0  0  0
    0.0050    1.8860   -0.3230 C   0  0  0  0  0  0  0  0  0  0  0  0
    0.8080    2.8640   -0.3410 O   0  0  0  0  0  0  0  0  0  0  0  0
    0.6570    0.6320   -0.1890 N   0  0  0  0  0  0  0  0  0  0  0  0
    1.9110    0.6080    0.5900 C   0  0  2  0  0  0  0  0  0  0  0  0
    2.9910    0.1670   -0.2750 C   0  0  0  0  0  0  0  0  0  0  0  0
    3.9600   -0.7250    0.3720 C   0  0  0  0  0  0  0  0  0  0  0  0
    3.4930   -0.7060    2.0890 S   0  0  1  0  0  0  0  0  0  0  0  0
    3.5860   -2.0600    2.7120 O   0  0  0  0  0  0  0  0  0  0  0  0
    4.2070    0.3490    2.8550 O   0  0  0  0  0  0  0  0  0  0  0  0
    1.7780   -0.2370    1.8120 C   0  0  0  0  0  0  0  0  0  0  0  0
    0.2160   -0.6160   -0.7420 C   0  0  0  0  0  0  0  0  0  0  0  0
   -1.2360   -0.8690   -0.4720 C   0  0  0  0  0  0  0  0  0  0  0  0
   -1.7170   -1.9940   -0.9910 C   0  0  0  0  0  0  0  0  0  0  0  0
   -3.0780   -2.5050   -0.9360 C   0  0  0  0  0  0  0  0  0  0  0  0
  1  2  2  0
  2  3  1  0
  2 17  1  0
  3  4  1  0
  4  5  1  6
  4  6  1  0
  6  7  2  0
  6  8  1  0
  9  8  1  6
  8 16  1  0
  9 10  1  0
  9 15  1  0
 10 11  1  0
 12 11  1  6
 12 13  2  0
 12 14  2  0
 12 15  1  0
 16 17  1  0
 17 18  2  3
 18 19  1  0
M  END
