
     RDKit          3D

 29 31  0  0  0  0  0  0  0  0999 V2000
   -6.1860    0.8210   -3.2760 C   0  0  0  0  0  0  0  0  0  0  0  0
   -5.3310    0.5980   -2.0950 C   0  0  0  0  0  0  0  0  0  0  0  0
   -5.6840    1.1410   -0.8770 C   0  0  0  0  0  0  0  0  0  0  0  0
   -4.8590    0.9090    0.1890 C   0  0  0  0  0  0  0  0  0  0  0  0
   -3.7040    0.1560    0.0650 C   0  0  0  0  0  0  0  0  0  0  0  0
   -3.3400   -0.3900   -1.1390 C   0  0  0  0  0  0  0  0  0  0  0  0
   -2.1880   -1.1570   -1.3200 O   0  0  0  0  0  0  0  0  0  0  0  0
   -2.1920   -2.4310   -0.8070 C   0  0  0  0  0  0  0  0  0  0  0  0
   -3.2090   -2.8420   -0.1930 O   0  0  0  0  0  0  0  0  0  0  0  0
   -1.0400   -3.3200   -0.9590 C   0  0  0  0  0  0  0  0  0  0  0  0
    0.3510   -2.9330    0.1320 S   0  0  0  0  0  0  0  0  0  0  0  0
    1.0140   -1.3520   -0.3680 C   0  0  0  0  0  0  0  0  0  0  0  0
    0.4230   -0.6770   -1.2530 O   0  0  0  0  0  0  0  0  0  0  0  0
    2.1860   -0.8100    0.1820 N   0  0  0  0  0  0  0  0  0  0  0  0
    2.7690    0.4670   -0.1870 C   0  0  0  0  0  0  0  0  0  0  0  0
    4.0310    0.7060    0.5740 C   0  0  0  0  0  0  0  0  0  0  0  0
    4.4380   -0.1780    1.4170 O   0  0  0  0  0  0  0  0  0  0  0  0
    4.8340    1.8570    0.4280 N   0  0  0  0  0  0  0  0  0  0  0  0
    6.0710    2.0020    1.2060 C   0  0  0  0  0  0  0  0  0  0  0  0
    6.9810    0.8590    0.8400 C   0  0  0  0  0  0  0  0  0  0  0  0
    8.2750    0.7630    1.2890 C   0  0  0  0  0  0  0  0  0  0  0  0
    8.7710   -0.3880    0.7550 C   0  0  0  0  0  0  0  0  0  0  0  0
    7.7470   -0.9350    0.0060 C   0  0  0  0  0  0  0  0  0  0  0  0
    6.6950   -0.1630    0.0810 O   0  0  0  0  0  0  0  0  0  0  0  0
   -4.1820   -0.1540   -2.2250 C   0  0  0  0  0  0  0  0  0  0  0  0
   -2.8950   -0.0200    1.2960 C   0  0  0  0  0  0  0  0  0  0  0  0
   -3.7640   -0.4650    2.2860 O   0  0  0  0  0  0  0  0  0  0  0  0
   -4.7790    0.3890    2.6090 C   0  0  0  0  0  0  0  0  0  0  0  0
   -5.1310    1.4220    1.5770 C   0  0  0  0  0  0  0  0  0  0  0  0
  1  2  1  0
  2  3  2  0
  2 25  1  0
  3  4  1  0
  4  5  2  0
  4 29  1  0
  5  6  1  0
  5 26  1  0
  6  7  1  0
  6 25  2  0
  7  8  1  0
  8  9  2  0
  8 10  1  0
 10 11  1  0
 11 12  1  0
 12 13  2  0
 12 14  1  0
 14 15  1  0
 15 16  1  0
 16 17  2  0
 16 18  1  0
 18 19  1  0
 19 20  1  0
 20 21  2  0
 20 24  1  0
 21 22  1  0
 22 23  2  0
 23 24  1  0
 26 27  1  0
 27 28  1  0
 28 29  1  0
M  END
