
     RDKit          3D

 29 31  0  0  0  0  0  0  0  0999 V2000
    6.3640    1.7430   -1.2550 C   0  0  0  0  0  0  0  0  0  0  0  0
    6.1690    0.5410   -0.8200 C   0  0  0  0  0  0  0  0  0  0  0  0
    7.3010   -0.2320   -0.4080 O   0  0  0  0  0  0  0  0  0  0  0  0
    7.0900   -1.3080    0.5150 C   0  0  0  0  0  0  0  0  0  0  0  0
    5.9150   -1.9990    0.1460 O   0  0  0  0  0  0  0  0  0  0  0  0
    4.7540   -1.3130   -0.2680 C   0  0  0  0  0  0  0  0  0  0  0  0
    3.5240   -2.1030   -0.1700 C   0  0  0  0  0  0  0  0  0  0  0  0
    3.9650   -3.7050   -1.0380 S   0  0  0  0  0  0  0  0  0  0  0  0
    4.8290   -0.1110   -0.7140 C   0  0  0  0  0  0  0  0  0  0  0  0
    3.6810    0.7590   -0.8530 C   0  0  0  0  0  0  0  0  0  0  0  0
    3.8170    1.8710   -1.5030 O   0  0  0  0  0  0  0  0  0  0  0  0
    2.3870    0.5820   -0.3550 N   0  0  0  0  0  0  0  0  0  0  0  0
    1.2670    1.4770   -0.5510 C   0  0  0  0  0  0  0  0  0  0  0  0
    1.3580    2.7800   -0.9260 C   0  0  0  0  0  0  0  0  0  0  0  0
    0.1980    3.5470   -1.1090 C   0  0  0  0  0  0  0  0  0  0  0  0
   -1.0350    2.9730   -0.9050 C   0  0  0  0  0  0  0  0  0  0  0  0
   -1.1720    1.6400   -0.5190 C   0  0  0  0  0  0  0  0  0  0  0  0
   -2.4700    1.1510   -0.3360 N   0  0  0  0  0  0  0  0  0  0  0  0
   -2.8770   -0.1490    0.0350 C   0  0  0  0  0  0  0  0  0  0  0  0
   -2.0020   -1.0130    0.2390 O   0  0  0  0  0  0  0  0  0  0  0  0
   -4.3070   -0.5310    0.1940 C   0  0  2  0  0  0  0  0  0  0  0  0
   -5.0940   -0.3690   -1.0730 C   0  0  0  0  0  0  0  0  0  0  0  0
   -4.9740    0.2570    1.2970 C   0  0  0  0  0  0  0  0  0  0  0  0
   -6.2550   -0.4390    1.7200 C   0  0  0  0  0  0  0  0  0  0  0  0
   -5.8950   -1.7060    2.4620 C   0  0  0  0  0  0  0  0  0  0  0  0
   -4.6540   -2.2470    1.8640 C   0  0  0  0  0  0  0  0  0  0  0  0
   -3.9140   -3.0210    2.5630 O   0  0  0  0  0  0  0  0  0  0  0  0
   -4.3460   -1.8890    0.5670 O   0  0  0  0  0  0  0  0  0  0  0  0
   -0.0080    0.9450   -0.3570 C   0  0  0  0  0  0  0  0  0  0  0  0
  1  2  2  0
  2  3  1  0
  2  9  1  0
  3  4  1  0
  4  5  1  0
  5  6  1  0
  6  7  1  0
  6  9  2  0
  7  8  1  0
  9 10  1  0
 10 11  2  0
 10 12  1  0
 12 13  1  0
 13 14  2  0
 13 29  1  0
 14 15  1  0
 15 16  2  0
 16 17  1  0
 17 18  1  0
 17 29  2  0
 18 19  1  0
 19 20  2  0
 19 21  1  0
 21 22  1  6
 21 23  1  0
 21 28  1  0
 23 24  1  0
 24 25  1  0
 25 26  1  0
 26 27  2  0
 26 28  1  0
M  END
