
     RDKit          3D

 29 30  0  0  0  0  0  0  0  0999 V2000
   -1.4120    2.3490   -4.4500 C   0  0  0  0  0  0  0  0  0  0  0  0
   -0.5650    1.8360   -3.3800 N   0  0  0  0  0  0  0  0  0  0  0  0
   -1.1330    1.2950   -2.1560 C   0  0  0  0  0  0  0  0  0  0  0  0
   -2.3900    1.3440   -2.1810 O   0  0  0  0  0  0  0  0  0  0  0  0
   -0.3440    0.7790   -1.0770 C   0  0  0  0  0  0  0  0  0  0  0  0
    0.9940    0.7870   -1.1820 C   0  0  0  0  0  0  0  0  0  0  0  0
    1.8760    0.2820   -0.1310 C   0  0  0  0  0  0  0  0  0  0  0  0
    1.4480   -0.2180    0.9940 C   0  0  0  0  0  0  0  0  0  0  0  0
    2.5000   -0.8450    2.3020 S   0  0  0  0  0  0  0  0  0  0  0  0
    4.2170   -0.7600    1.9710 C   0  0  0  0  0  0  0  0  0  0  0  0
    4.9860   -1.2070    2.9050 O   0  0  0  0  0  0  0  0  0  0  0  0
    4.7970   -0.2640    0.8140 O   0  0  0  0  0  0  0  0  0  0  0  0
    6.2050   -0.2610    0.6900 C   0  0  1  0  0  0  0  0  0  0  0  0
    6.8670    0.5610    1.7770 C   0  0  0  0  0  0  0  0  0  0  0  0
    6.7640   -1.6630    0.6920 C   0  0  0  0  0  0  0  0  0  0  0  0
    6.5580    0.4120   -0.6380 C   0  0  0  0  0  0  0  0  0  0  0  0
   -0.0210   -0.2650    1.1940 C   0  0  0  0  0  0  0  0  0  0  0  0
   -0.4060   -0.7440    2.2710 O   0  0  0  0  0  0  0  0  0  0  0  0
   -0.9080    0.2380    0.1470 C   0  0  0  0  0  0  0  0  0  0  0  0
   -2.2040    0.1930    0.3200 C   0  0  0  0  0  0  0  0  0  0  0  0
   -2.9280   -0.3050    1.4580 C   0  0  0  0  0  0  0  0  0  0  0  0
   -4.2650   -0.2940    1.5180 C   0  0  0  0  0  0  0  0  0  0  0  0
   -4.9860    0.2340    0.4130 N   0  0  0  0  0  0  0  0  0  0  0  0
   -6.1550   -0.3330   -0.1840 C   0  0  0  0  0  0  0  0  0  0  0  0
   -6.7450   -1.4920    0.5220 C   0  0  0  0  0  0  0  0  0  0  0  0
   -7.1470   -1.3490    1.9210 C   0  0  0  0  0  0  0  0  0  0  0  0
   -6.1470   -1.3420    2.8870 O   0  0  0  0  0  0  0  0  0  0  0  0
   -4.8580   -0.8510    2.7510 C   0  0  0  0  0  0  0  0  0  0  0  0
   -4.1010   -0.8720    3.7630 O   0  0  0  0  0  0  0  0  0  0  0  0
  1  2  1  0
  2  3  1  0
  3  4  2  0
  3  5  1  0
  5  6  2  0
  5 19  1  0
  6  7  1  0
  7  8  2  0
  8  9  1  0
  8 17  1  0
  9 10  1  0
 10 11  2  0
 10 12  1  0
 12 13  1  0
 13 14  1  1
 13 15  1  0
 13 16  1  0
 17 18  2  0
 17 19  1  0
 19 20  2  3
 20 21  1  0
 21 22  2  3
 22 23  1  0
 22 28  1  0
 23 24  1  0
 24 25  1  0
 25 26  1  0
 26 27  1  0
 27 28  1  0
 28 29  2  0
M  END
