
     RDKit          3D

 33 35  0  0  0  0  0  0  0  0999 V2000
    5.2050   -1.3090   -2.0780 C   0  0  0  0  0  0  0  0  0  0  0  0
    4.8370   -0.1630   -1.2270 N   0  0  0  0  0  0  0  0  0  0  0  0
    4.8570   -0.1510    0.0810 C   0  0  0  0  0  0  0  0  0  0  0  0
    3.7010   -0.7640    0.8020 C   0  0  0  0  0  0  0  0  0  0  0  0
    3.6080   -0.8160    2.2320 N   0  0  0  0  0  0  0  0  0  0  0  0
    2.6910   -1.2780    0.1150 N   0  0  0  0  0  0  0  0  0  0  0  0
    1.7140   -1.8230    1.0640 C   0  0  0  0  0  0  0  0  0  0  0  0
    0.4820   -1.9900    0.6410 N   0  0  0  0  0  0  0  0  0  0  0  0
   -0.3690   -2.5500    1.6600 C   0  0  0  0  0  0  0  0  0  0  0  0
    0.1670   -3.6630    2.3540 C   0  0  0  0  0  0  0  0  0  0  0  0
   -0.5040   -4.2790    3.3800 C   0  0  0  0  0  0  0  0  0  0  0  0
   -1.7280   -3.7570    3.7040 C   0  0  0  0  0  0  0  0  0  0  0  0
   -2.2810   -2.6640    3.0420 C   0  0  0  0  0  0  0  0  0  0  0  0
   -1.5660   -2.0700    2.0010 C   0  0  0  0  0  0  0  0  0  0  0  0
   -2.2240   -1.0050    1.2780 N   0  0  0  0  0  0  0  0  0  0  0  0
   -3.1990   -0.1490    1.7580 C   0  0  0  0  0  0  0  0  0  0  0  0
   -3.5370   -0.2700    3.0110 O   0  0  0  0  0  0  0  0  0  0  0  0
   -3.8980    0.8700    1.0090 C   0  0  0  0  0  0  0  0  0  0  0  0
   -3.7020    1.0860   -0.3020 C   0  0  0  0  0  0  0  0  0  0  0  0
   -4.3660    2.0850   -1.0760 C   0  0  0  0  0  0  0  0  0  0  0  0
   -5.2910    2.9260   -0.5380 C   0  0  0  0  0  0  0  0  0  0  0  0
   -5.8640    3.9320   -1.2890 C   0  0  0  0  0  0  0  0  0  0  0  0
   -5.4940    4.0820   -2.5960 C   0  0  0  0  0  0  0  0  0  0  0  0
   -4.5710    3.2310   -3.1220 C   0  0  0  0  0  0  0  0  0  0  0  0
   -3.9720    2.2260   -2.4440 C   0  0  0  0  0  0  0  0  0  0  0  0
   -3.0700    1.2720   -3.0500 C   0  0  0  0  0  0  0  0  0  0  0  0
   -2.8400    1.4200   -4.3760 C   0  0  0  0  0  0  0  0  0  0  0  0
   -3.4480    2.4760   -5.1870 C   0  0  0  0  0  0  0  0  0  0  0  0
   -4.1980    3.3960   -4.4630 O   0  0  0  0  0  0  0  0  0  0  0  0
    5.8420    0.2720    0.9310 C   0  0  0  0  0  0  0  0  0  0  0  0
    7.0180    0.7700    0.0650 C   0  0  0  0  0  0  0  0  0  0  0  0
    5.9240    0.3920    2.2680 C   0  0  0  0  0  0  0  0  0  0  0  0
    7.1270    0.8500    2.7270 O   0  0  0  0  0  0  0  0  0  0  0  0
  1  2  1  0
  2  3  1  0
  3  4  1  0
  3 30  2  3
  4  5  1  0
  4  6  2  3
  6  7  1  0
  7  8  2  3
  8  9  1  0
  9 10  2  0
  9 14  1  0
 10 11  1  0
 11 12  2  0
 12 13  1  0
 13 14  2  0
 14 15  1  0
 15 16  1  0
 16 17  2  0
 16 18  1  0
 18 19  2  3
 19 20  1  0
 20 21  2  0
 20 25  1  0
 21 22  1  0
 22 23  2  0
 23 24  1  0
 24 25  2  0
 24 29  1  0
 25 26  1  0
 26 27  2  0
 27 28  1  0
 28 29  1  0
 30 31  1  0
 30 32  1  0
 32 33  2  0
M  CHG  1   8   1
M  END
