
     RDKit          3D

 33 37  0  0  0  0  0  0  0  0999 V2000
   -5.3880    1.6050   -2.4920 C   0  0  0  0  0  0  0  0  0  0  0  0
   -5.1750    0.4220   -1.7120 N   0  0  0  0  0  0  0  0  0  0  0  0
   -6.1210    0.0260   -0.6830 C   0  0  0  0  0  0  0  0  0  0  0  0
   -7.3570    0.2940   -0.8460 N   0  0  0  0  0  0  0  0  0  0  0  0
   -8.3660   -0.0550    0.0680 C   0  0  0  0  0  0  0  0  0  0  0  0
   -9.6710    0.1940    0.1860 N   0  0  0  0  0  0  0  0  0  0  0  0
  -10.1150   -0.3140    1.3430 N   0  0  0  0  0  0  0  0  0  0  0  0
   -9.1000   -0.9090    2.0070 C   0  0  0  0  0  0  0  0  0  0  0  0
   -7.9880   -0.7460    1.1920 C   0  0  0  0  0  0  0  0  0  0  0  0
   -6.6280   -1.2850    1.3600 C   0  0  0  0  0  0  0  0  0  0  0  0
   -5.6110   -0.5520    0.5690 C   0  0  1  0  0  0  0  0  0  0  0  0
   -4.3920   -1.2910    0.4000 N   0  0  0  0  0  0  0  0  0  0  0  0
   -3.1610   -0.6650    0.1890 C   0  0  0  0  0  0  0  0  0  0  0  0
   -2.9440    0.6740    0.3410 C   0  0  0  0  0  0  0  0  0  0  0  0
   -1.7060    1.2790    0.1240 C   0  0  0  0  0  0  0  0  0  0  0  0
   -0.6460    0.5120   -0.2610 C   0  0  0  0  0  0  0  0  0  0  0  0
    0.6670    1.1410   -0.4860 C   0  0  0  0  0  0  0  0  0  0  0  0
    1.7080    0.3790   -0.9080 C   0  0  0  0  0  0  0  0  0  0  0  0
    2.9930    0.8710   -1.1590 C   0  0  0  0  0  0  0  0  0  0  0  0
    4.1160    0.0050   -1.6240 C   0  0  0  0  0  0  0  0  0  0  0  0
    5.0350   -0.6760   -0.3000 S   0  0  0  0  0  0  0  0  0  0  0  0
    4.6720   -2.3520    0.0090 C   0  0  0  0  0  0  0  0  0  0  0  0
    5.9560   -1.4950   -1.8050 O   0  0  0  0  0  0  0  0  0  0  0  0
    6.6790   -0.2300   -0.2290 N   0  0  0  0  0  0  0  0  0  0  0  0
    7.3850   -1.3180    0.3840 C   0  0  0  0  0  0  0  0  0  0  0  0
    8.7840   -0.6930    0.4820 C   0  0  0  0  0  0  0  0  0  0  0  0
    8.5170    0.8000    0.6610 C   0  0  0  0  0  0  0  0  0  0  0  0
    7.0010    0.9020    0.5490 C   0  0  0  0  0  0  0  0  0  0  0  0
    3.1860    2.2140   -0.9580 C   0  0  0  0  0  0  0  0  0  0  0  0
    2.1150    2.9880   -0.5270 C   0  0  0  0  0  0  0  0  0  0  0  0
    0.8800    2.4490   -0.2990 N   0  0  0  0  0  0  0  0  0  0  0  0
   -0.8550   -0.8530   -0.4190 C   0  0  0  0  0  0  0  0  0  0  0  0
   -2.0790   -1.4320   -0.2020 C   0  0  0  0  0  0  0  0  0  0  0  0
  1  2  1  0
  2  3  1  0
  3  4  2  0
  3 11  1  0
  4  5  1  0
  5  6  2  0
  5  9  1  0
  6  7  1  0
  7  8  1  0
  8  9  2  0
  9 10  1  0
 10 11  1  0
 11 12  1  6
 12 13  1  0
 13 14  2  0
 13 33  1  0
 14 15  1  0
 15 16  2  0
 16 17  1  0
 16 32  1  0
 17 18  2  0
 17 31  1  0
 18 19  1  0
 19 20  1  0
 19 29  2  0
 20 21  1  0
 21 22  1  0
 21 23  2  0
 21 24  1  0
 24 25  1  0
 24 28  1  0
 25 26  1  0
 26 27  1  0
 27 28  1  0
 29 30  1  0
 30 31  2  0
 32 33  2  0
M  CHG  1  31   1
M  END
