
     RDKit          3D

 33 35  0  0  0  0  0  0  0  0999 V2000
   -2.1900    5.7440    1.1100 C   0  0  0  0  0  0  0  0  0  0  0  0
   -1.3280    4.9890    2.0110 N   0  0  0  0  0  0  0  0  0  0  0  0
   -0.7130    3.8920    1.3720 C   0  0  0  0  0  0  0  0  0  0  0  0
    0.5060    3.9650    0.9900 O   0  0  0  0  0  0  0  0  0  0  0  0
   -1.4520    2.6560    1.1330 C   0  0  0  0  0  0  0  0  0  0  0  0
   -0.7930    1.5740    0.5040 C   0  0  0  0  0  0  0  0  0  0  0  0
   -1.3870    0.3800    0.2350 C   0  0  0  0  0  0  0  0  0  0  0  0
   -0.7680   -0.6810   -0.4110 N   0  0  0  0  0  0  0  0  0  0  0  0
    0.5870   -0.7060   -0.7790 C   0  0  0  0  0  0  0  0  0  0  0  0
    1.3920    0.2010   -0.5750 O   0  0  0  0  0  0  0  0  0  0  0  0
    1.0890   -1.9340   -1.4720 C   0  0  0  0  0  0  0  0  0  0  0  0
    2.5530   -1.7520   -1.7900 C   0  0  2  0  0  0  0  0  0  0  0  0
    2.9840   -3.0370   -2.4860 C   0  0  0  0  0  0  0  0  0  0  0  0
    3.3200   -1.4580   -0.6830 O   0  0  0  0  0  0  0  0  0  0  0  0
    4.2040   -0.4130   -0.4820 C   0  0  0  0  0  0  0  0  0  0  0  0
    4.4890    0.5510   -1.4090 C   0  0  0  0  0  0  0  0  0  0  0  0
    5.3840    1.5530   -1.1170 C   0  0  0  0  0  0  0  0  0  0  0  0
    6.0360    1.6530    0.0950 C   0  0  0  0  0  0  0  0  0  0  0  0
    7.0070    2.7540    0.3920 C   0  0  0  0  0  0  0  0  0  0  0  0
    5.7340    0.6710    1.0140 C   0  0  0  0  0  0  0  0  0  0  0  0
    4.8450   -0.3390    0.7490 C   0  0  0  0  0  0  0  0  0  0  0  0
    4.5700   -1.3680    1.7990 C   0  0  0  0  0  0  0  0  0  0  0  0
   -2.7330    0.1910    0.5960 C   0  0  0  0  0  0  0  0  0  0  0  0
   -3.4150   -1.0380    0.3760 N   0  0  0  0  0  0  0  0  0  0  0  0
   -3.0680   -2.1810    1.1410 C   0  0  0  0  0  0  0  0  0  0  0  0
   -3.1760   -3.4840    0.4040 C   0  0  0  0  0  0  0  0  0  0  0  0
   -4.0800   -3.4330   -0.7180 N   0  0  0  0  0  0  0  0  0  0  0  0
   -5.1170   -2.4450   -0.4940 C   0  0  2  0  0  0  0  0  0  0  0  0
   -6.2390   -2.5620   -1.4740 C   0  0  0  0  0  0  0  0  0  0  0  0
   -4.4440   -1.0880   -0.6240 C   0  0  0  0  0  0  0  0  0  0  0  0
   -3.3610    1.2550    1.2070 C   0  0  0  0  0  0  0  0  0  0  0  0
   -2.7560    2.4570    1.4750 C   0  0  0  0  0  0  0  0  0  0  0  0
   -3.4830    3.4550    2.0920 O   0  0  0  0  0  0  0  0  0  0  0  0
  1  2  1  0
  2  3  1  0
  3  4  2  0
  3  5  1  0
  5  6  2  0
  5 32  1  0
  6  7  1  0
  7  8  1  0
  7 23  2  0
  8  9  1  0
  9 10  2  0
  9 11  1  0
 11 12  1  0
 12 13  1  1
 12 14  1  0
 14 15  1  0
 15 16  2  0
 15 21  1  0
 16 17  1  0
 17 18  2  0
 18 19  1  0
 18 20  1  0
 20 21  2  0
 21 22  1  0
 23 24  1  0
 23 31  1  0
 24 25  1  0
 24 30  1  0
 25 26  1  0
 26 27  1  0
 27 28  1  0
 28 29  1  6
 28 30  1  0
 31 32  2  0
 32 33  1  0
M  CHG  3   2   1  27   1  33  -1
M  END
