
     RDKit          3D

 33 35  0  0  0  0  0  0  0  0999 V2000
   -4.9120   -1.1290   -3.1620 C   0  0  0  0  0  0  0  0  0  0  0  0
   -5.1800   -2.1630   -2.1280 C   0  0  0  0  0  0  0  0  0  0  0  0
   -4.5070   -2.1100   -0.9770 C   0  0  0  0  0  0  0  0  0  0  0  0
   -3.5340   -1.0970   -0.6890 C   0  0  0  0  0  0  0  0  0  0  0  0
   -2.7930   -0.9380    0.4060 C   0  0  0  0  0  0  0  0  0  0  0  0
   -2.8510   -1.8200    1.5480 C   0  0  0  0  0  0  0  0  0  0  0  0
   -3.2260   -3.1770    1.4170 N   0  0  0  0  0  0  0  0  0  0  0  0
   -2.4830   -4.1330    0.6840 C   0  0  0  0  0  0  0  0  0  0  0  0
   -1.4220   -3.8240    0.0970 O   0  0  0  0  0  0  0  0  0  0  0  0
   -2.9300   -5.4650    0.6000 O   0  0  0  0  0  0  0  0  0  0  0  0
   -2.5260   -1.3780    2.7890 C   0  0  0  0  0  0  0  0  0  0  0  0
   -2.0910   -0.0150    2.9050 C   0  0  0  0  0  0  0  0  0  0  0  0
   -1.9480    0.8250    1.8660 C   0  0  0  0  0  0  0  0  0  0  0  0
   -1.5340    2.1860    2.1380 C   0  0  0  0  0  0  0  0  0  0  0  0
   -1.2870    2.5450    3.3490 O   0  0  0  0  0  0  0  0  0  0  0  0
   -1.3820    3.2100    1.0910 C   0  0  0  0  0  0  0  0  0  0  0  0
   -1.1110    4.5700    1.7270 C   0  0  0  0  0  0  0  0  0  0  0  0
   -1.9620    0.2910    0.4710 C   0  0  1  0  0  0  0  0  0  0  0  0
   -0.5960    0.0180   -0.0040 N   0  0  2  0  0  0  0  0  0  0  0  0
   -0.5560   -0.7490   -1.2140 C   0  0  0  0  0  0  0  0  0  0  0  0
    0.2150   -0.6120    0.9630 C   0  0  0  0  0  0  0  0  0  0  0  0
    1.6590   -0.4560    0.6760 C   0  0  0  0  0  0  0  0  0  0  0  0
    2.5000   -1.0050    1.4780 O   0  0  0  0  0  0  0  0  0  0  0  0
    2.1180    0.2660   -0.4310 N   0  0  0  0  0  0  0  0  0  0  0  0
    3.4970    0.4510   -0.7440 C   0  0  0  0  0  0  0  0  0  0  0  0
    3.8070    0.7600   -2.0720 C   0  0  0  0  0  0  0  0  0  0  0  0
    5.1060    0.9680   -2.4240 C   0  0  0  0  0  0  0  0  0  0  0  0
    6.1030    0.8750   -1.4820 C   0  0  0  0  0  0  0  0  0  0  0  0
    7.4310    1.0340   -1.5980 N   0  0  0  0  0  0  0  0  0  0  0  0
    7.9790    0.8380   -0.3900 C   0  0  0  0  0  0  0  0  0  0  0  0
    7.0110    0.5440    0.5440 C   0  0  0  0  0  0  0  0  0  0  0  0
    5.8200    0.5710   -0.1690 C   0  0  0  0  0  0  0  0  0  0  0  0
    4.4780    0.3560    0.2000 C   0  0  0  0  0  0  0  0  0  0  0  0
  1  2  1  0
  2  3  2  3
  3  4  1  0
  4  5  2  3
  5  6  1  0
 18  5  1  1
  6  7  1  0
  6 11  2  0
  7  8  1  0
  8  9  2  0
  8 10  1  0
 11 12  1  0
 12 13  2  0
 13 14  1  0
 13 18  1  0
 14 15  2  0
 14 16  1  0
 16 17  1  0
 18 19  1  0
 19 20  1  6
 19 21  1  0
 21 22  1  0
 22 23  2  0
 22 24  1  0
 24 25  1  0
 25 26  2  0
 25 33  1  0
 26 27  1  0
 27 28  2  0
 28 29  1  0
 28 32  1  0
 29 30  1  0
 30 31  2  0
 31 32  1  0
 32 33  2  0
M  CHG  2  10  -1  19   1
M  END
