
     RDKit          3D

 33 35  0  0  0  0  0  0  0  0999 V2000
   -3.4210   -0.0550   -1.7850 C   0  0  0  0  0  0  0  0  0  0  0  0
   -3.7470    0.0970   -0.3030 C   0  0  0  0  0  0  0  0  0  0  0  0
   -4.6240   -0.8700    0.3900 C   0  0  0  0  0  0  0  0  0  0  0  0
   -6.0120   -0.8420   -0.1500 C   0  0  2  0  0  0  0  0  0  0  0  0
   -6.8280   -1.8680    0.6920 C   0  0  0  0  0  0  0  0  0  0  0  0
   -6.1490   -1.3270   -1.5150 N   0  0  0  0  0  0  0  0  0  0  0  0
   -3.2050    1.0960    0.2390 N   0  0  0  0  0  0  0  0  0  0  0  0
   -3.1150    1.7190    1.4340 C   0  0  0  0  0  0  0  0  0  0  0  0
   -4.1760    2.0650    2.1600 C   0  0  0  0  0  0  0  0  0  0  0  0
   -5.4900    1.8380    1.7930 O   0  0  0  0  0  0  0  0  0  0  0  0
   -6.3840    2.8100    2.0100 O   0  0  0  0  0  0  0  0  0  0  0  0
   -1.7780    2.1070    1.9950 C   0  0  2  0  0  0  0  0  0  0  0  0
   -0.9870    2.7240    0.9740 N   0  0  0  0  0  0  0  0  0  0  0  0
   -1.0470    1.0420    2.7190 C   0  0  0  0  0  0  0  0  0  0  0  0
   -0.6840   -0.1320    2.0270 N   0  0  0  0  0  0  0  0  0  0  0  0
   -1.7150   -1.2290    2.1120 C   0  0  0  0  0  0  0  0  0  0  0  0
    0.4490   -0.4770    1.3200 C   0  0  0  0  0  0  0  0  0  0  0  0
    0.3960   -1.6890    0.7710 O   0  0  0  0  0  0  0  0  0  0  0  0
    1.6910    0.2070    1.0470 C   0  0  0  0  0  0  0  0  0  0  0  0
    2.0520    1.4370    1.5350 C   0  0  0  0  0  0  0  0  0  0  0  0
    3.2700    2.0640    1.2350 C   0  0  0  0  0  0  0  0  0  0  0  0
    4.1540    1.4090    0.4060 C   0  0  0  0  0  0  0  0  0  0  0  0
    5.3490    1.6990   -0.0680 O   0  0  0  0  0  0  0  0  0  0  0  0
    5.8130    0.7480   -0.8370 C   0  0  0  0  0  0  0  0  0  0  0  0
    6.9930    0.5730   -1.5590 C   0  0  0  0  0  0  0  0  0  0  0  0
    7.2400   -0.5520   -2.3100 C   0  0  0  0  0  0  0  0  0  0  0  0
    8.5240   -0.7140   -3.0800 C   0  0  0  0  0  0  0  0  0  0  0  0
    6.3080   -1.5640   -2.3740 C   0  0  0  0  0  0  0  0  0  0  0  0
    6.5390   -2.7950   -3.1730 C   0  0  0  0  0  0  0  0  0  0  0  0
    5.1290   -1.4060   -1.6620 C   0  0  0  0  0  0  0  0  0  0  0  0
    4.8850   -0.2720   -0.9080 C   0  0  0  0  0  0  0  0  0  0  0  0
    3.8420    0.1680   -0.1140 C   0  0  0  0  0  0  0  0  0  0  0  0
    2.6420   -0.4180    0.1990 C   0  0  0  0  0  0  0  0  0  0  0  0
  1  2  1  0
  2  3  1  0
  2  7  2  3
  3  4  1  0
  4  5  1  1
  4  6  1  0
  7  8  1  0
  8  9  2  3
  8 12  1  0
  9 10  1  0
 10 11  1  0
 12 13  1  6
 12 14  1  0
 14 15  1  0
 15 16  1  0
 15 17  1  0
 17 18  2  0
 17 19  1  0
 19 20  2  0
 19 33  1  0
 20 21  1  0
 21 22  2  0
 22 23  1  0
 22 32  1  0
 23 24  1  0
 24 25  2  0
 24 31  1  0
 25 26  1  0
 26 27  1  0
 26 28  2  0
 28 29  1  0
 28 30  1  0
 30 31  2  0
 31 32  1  0
 32 33  2  0
M  CHG  3   6   1  11  -1  13   1
M  END
