
     RDKit          3D

 33 37  0  0  0  0  0  0  0  0999 V2000
   -5.6010    4.0850   -2.9370 C   0  0  0  0  0  0  0  0  0  0  0  0
   -4.3880    3.4240   -2.3690 C   0  0  0  0  0  0  0  0  0  0  0  0
   -4.5270    2.4120   -1.4610 C   0  0  0  0  0  0  0  0  0  0  0  0
   -3.4500    1.8200   -0.9520 N   0  0  0  0  0  0  0  0  0  0  0  0
   -2.1880    2.1560   -1.2770 C   0  0  0  0  0  0  0  0  0  0  0  0
   -1.0490    1.4770   -0.6910 C   0  0  0  0  0  0  0  0  0  0  0  0
    0.2420    1.8020   -1.0060 C   0  0  0  0  0  0  0  0  0  0  0  0
    1.2590    1.0750   -0.3760 C   0  0  0  0  0  0  0  0  0  0  0  0
    1.0350    0.0710    0.5260 C   0  0  0  0  0  0  0  0  0  0  0  0
    2.0650   -0.6760    1.1540 N   0  0  0  0  0  0  0  0  0  0  0  0
    3.4440   -0.5230    0.8970 C   0  0  0  0  0  0  0  0  0  0  0  0
    3.6940   -0.3730   -0.3590 N   0  0  0  0  0  0  0  0  0  0  0  0
    4.9670   -0.1940   -0.9680 C   0  0  0  0  0  0  0  0  0  0  0  0
    5.1240    0.2290   -2.1910 C   0  0  0  0  0  0  0  0  0  0  0  0
    6.5700    0.2950   -2.4890 C   0  0  2  0  0  0  0  0  0  0  0  0
    6.9270   -0.6630   -3.5270 N   0  0  0  0  0  0  0  0  0  0  0  0
    7.1920   -0.1580   -1.2370 C   0  0  0  0  0  0  0  0  0  0  0  0
    6.2730   -0.4520   -0.3250 C   0  0  0  0  0  0  0  0  0  0  0  0
    6.5340   -0.9370    1.0440 C   0  0  0  0  0  0  0  0  0  0  0  0
    5.7320   -0.1890    2.0860 C   0  0  0  0  0  0  0  0  0  0  0  0
    4.3410   -0.5600    1.9990 N   0  0  0  0  0  0  0  0  0  0  0  0
   -0.2710   -0.2040    0.7970 N   0  0  0  0  0  0  0  0  0  0  0  0
   -1.2820    0.4590    0.2240 C   0  0  0  0  0  0  0  0  0  0  0  0
   -2.6240    0.1580    0.5190 O   0  0  0  0  0  0  0  0  0  0  0  0
   -2.8510   -0.8800    1.4520 C   0  0  0  0  0  0  0  0  0  0  0  0
   -4.3260   -1.0850    1.6630 C   0  0  1  0  0  0  0  0  0  0  0  0
   -5.1420   -1.5360    0.0800 S   0  0  0  0  0  0  0  0  0  0  0  0
   -6.1160   -2.9740    0.6790 C   0  0  0  0  0  0  0  0  0  0  0  0
   -5.9550   -2.8120    2.1740 C   0  0  0  0  0  0  0  0  0  0  0  0
   -4.5230   -2.4010    2.4210 C   0  0  2  0  0  0  0  0  0  0  0  0
   -4.3780   -2.1170    3.8920 C   0  0  0  0  0  0  0  0  0  0  0  0
   -2.0560    3.1770   -2.1930 C   0  0  0  0  0  0  0  0  0  0  0  0
   -3.1540    3.7920   -2.7220 N   0  0  0  0  0  0  0  0  0  0  0  0
  1  2  1  0
  2  3  2  0
  2 33  1  0
  3  4  1  0
  4  5  2  0
  5  6  1  0
  5 32  1  0
  6  7  2  0
  6 23  1  0
  7  8  1  0
  8  9  2  0
  9 10  1  0
  9 22  1  0
 10 11  1  0
 11 12  2  0
 11 21  1  0
 12 13  1  0
 13 14  2  0
 13 18  1  0
 14 15  1  0
 15 16  1  6
 15 17  1  0
 17 18  2  0
 18 19  1  0
 19 20  1  0
 20 21  1  0
 22 23  2  0
 23 24  1  0
 24 25  1  0
 26 25  1  6
 26 27  1  0
 26 30  1  0
 27 28  1  0
 28 29  1  0
 29 30  1  0
 30 31  1  1
 32 33  2  0
M  CHG  1  16   1
M  END
