
     RDKit          3D

 39 42  0  0  0  0  0  0  0  0999 V2000
   -3.2000    3.8690   -1.3790 C   0  0  0  0  0  0  0  0  0  0  0  0
   -2.1690    3.6110   -0.3130 C   0  0  0  0  0  0  0  0  0  0  0  0
   -2.5880    2.5710    0.5480 O   0  0  0  0  0  0  0  0  0  0  0  0
   -2.8260    1.3190   -0.0110 C   0  0  0  0  0  0  0  0  0  0  0  0
   -2.6580    1.1830   -1.2370 O   0  0  0  0  0  0  0  0  0  0  0  0
   -3.2650    0.1600    0.7930 C   0  0  2  0  0  0  0  0  0  0  0  0
   -1.8880   -0.2130    1.9390 S   0  0  0  0  0  0  0  0  0  0  0  0
   -0.4510   -0.7770    1.0820 C   0  0  0  0  0  0  0  0  0  0  0  0
    0.5880   -0.1210    0.5760 N   0  0  0  0  0  0  0  0  0  0  0  0
    1.4560   -0.9360    0.0080 N   0  0  0  0  0  0  0  0  0  0  0  0
    2.7140   -0.6110   -0.6540 C   0  0  0  0  0  0  0  0  0  0  0  0
    3.8270   -0.6380    0.3810 C   0  0  0  0  0  0  0  0  0  0  0  0
    3.5480   -0.9150    1.5690 O   0  0  0  0  0  0  0  0  0  0  0  0
    5.1330   -0.3460   -0.0630 N   0  0  0  0  0  0  0  0  0  0  0  0
    6.2820   -0.3310    0.7500 C   0  0  0  0  0  0  0  0  0  0  0  0
    6.2840   -0.8880    2.0140 C   0  0  0  0  0  0  0  0  0  0  0  0
    7.4320   -0.9550    2.8160 C   0  0  0  0  0  0  0  0  0  0  0  0
    7.4000   -1.6670    4.4130 Cl  0  0  0  0  0  0  0  0  0  0  0  0
    8.6090   -0.4540    2.3430 C   0  0  0  0  0  0  0  0  0  0  0  0
   10.0830   -0.5150    3.3090 Cl  0  0  0  0  0  0  0  0  0  0  0  0
    8.6300    0.1040    1.0920 C   0  0  0  0  0  0  0  0  0  0  0  0
    7.4790    0.1710    0.2920 C   0  0  0  0  0  0  0  0  0  0  0  0
    7.6610    0.8640   -0.9770 C   0  0  0  0  0  0  0  0  0  0  0  0
    8.7790    1.2770   -1.5420 C   0  0  0  0  0  0  0  0  0  0  0  0
    8.6340    1.9430   -2.8240 C   0  0  1  0  0  0  0  0  0  0  0  0
    8.5590    1.0080   -3.8420 F   0  0  0  0  0  0  0  0  0  0  0  0
    7.4430    2.6620   -2.8750 O   0  0  0  0  0  0  0  0  0  0  0  0
    6.4100    1.4540   -2.1510 S   0  0  0  0  0  0  0  0  0  0  0  0
    0.9520   -2.1820    0.1540 C   0  0  0  0  0  0  0  0  0  0  0  0
    1.4450   -3.2550   -0.2330 O   0  0  0  0  0  0  0  0  0  0  0  0
   -0.2130   -2.0900    0.8100 N   0  0  0  0  0  0  0  0  0  0  0  0
   -3.5410   -1.0020   -0.1110 C   0  0  0  0  0  0  0  0  0  0  0  0
   -4.7740   -0.7770   -0.9050 C   0  0  0  0  0  0  0  0  0  0  0  0
   -6.0100   -0.4640   -0.1010 C   0  0  1  0  0  0  0  0  0  0  0  0
   -6.5850   -1.6450    0.5120 N   0  0  2  0  0  0  0  0  0  0  0  0
   -6.5880   -2.7770   -0.3700 C   0  0  0  0  0  0  0  0  0  0  0  0
   -7.9620   -1.3860    0.8970 C   0  0  0  0  0  0  0  0  0  0  0  0
   -5.7470    0.6220    0.9200 C   0  0  0  0  0  0  0  0  0  0  0  0
   -4.4610    0.4330    1.6420 C   0  0  0  0  0  0  0  0  0  0  0  0
  1  2  1  0
  2  3  1  0
  3  4  1  0
  4  5  2  0
  4  6  1  0
  6  7  1  1
  6 32  1  0
  6 39  1  0
  7  8  1  0
  8  9  2  0
  8 31  1  0
  9 10  1  0
 10 11  1  0
 10 29  1  0
 11 12  1  0
 12 13  2  0
 12 14  1  0
 14 15  1  0
 15 16  2  0
 15 22  1  0
 16 17  1  0
 17 18  1  0
 17 19  2  0
 19 20  1  0
 19 21  1  0
 21 22  2  0
 22 23  1  0
 23 24  2  0
 23 28  1  0
 24 25  1  0
 25 26  1  6
 25 27  1  0
 27 28  1  0
 29 30  2  0
 29 31  1  0
 32 33  1  0
 34 33  1  1
 34 35  1  0
 34 38  1  0
 35 36  1  6
 35 37  1  0
 38 39  1  0
M  CHG  1  35   1
M  END
