
     RDKit          3D

 38 41  0  0  0  0  0  0  0  0999 V2000
   -6.0500   -3.5140   -2.4270 O   0  0  0  0  0  0  0  0  0  0  0  0
   -5.5940   -3.1900   -1.2970 C   0  0  0  0  0  0  0  0  0  0  0  0
   -4.4460   -2.2870   -1.2100 C   0  0  0  0  0  0  0  0  0  0  0  0
   -3.9110   -1.8990   -0.0950 C   0  0  0  0  0  0  0  0  0  0  0  0
   -2.7460   -0.9820   -0.0430 C   0  0  0  0  0  0  0  0  0  0  0  0
   -2.2630   -0.5120   -1.2890 N   0  0  1  0  0  0  0  0  0  0  0  0
   -3.0830    0.5590   -1.8450 C   0  0  0  0  0  0  0  0  0  0  0  0
   -4.0410    1.1180   -0.8630 C   0  0  0  0  0  0  0  0  0  0  0  0
   -5.3320    0.9260   -0.5790 C   0  0  0  0  0  0  0  0  0  0  0  0
   -5.9000    1.6370    0.4210 C   0  0  0  0  0  0  0  0  0  0  0  0
   -5.1620    2.5150    1.1040 C   0  0  0  0  0  0  0  0  0  0  0  0
   -5.4270    3.4360    2.2210 C   0  0  0  0  0  0  0  0  0  0  0  0
   -5.1410    2.6940    3.8030 Cl  0  0  0  0  0  0  0  0  0  0  0  0
   -3.5590    2.3460    0.3050 S   0  0  0  0  0  0  0  0  0  0  0  0
   -0.9680    0.0720   -1.0990 C   0  0  0  0  0  0  0  0  0  0  0  0
   -0.4340    0.1720    0.1570 C   0  0  0  0  0  0  0  0  0  0  0  0
    0.8410    0.7280    0.3290 C   0  0  0  0  0  0  0  0  0  0  0  0
    1.3200    0.8020    1.5920 F   0  0  0  0  0  0  0  0  0  0  0  0
    1.5900    1.1860   -0.7360 C   0  0  0  0  0  0  0  0  0  0  0  0
    2.8710    1.7310   -0.4680 N   0  0  0  0  0  0  0  0  0  0  0  0
    4.0370    0.9010   -0.4700 C   0  0  0  0  0  0  0  0  0  0  0  0
    3.8450   -0.3030   -0.7220 O   0  0  0  0  0  0  0  0  0  0  0  0
    5.3730    1.3910   -0.2020 C   0  0  0  0  0  0  0  0  0  0  0  0
    5.4090    2.6630    0.0640 O   0  0  0  0  0  0  0  0  0  0  0  0
    6.5660    0.6610   -0.2010 N   0  0  0  0  0  0  0  0  0  0  0  0
    7.8100    1.3630    0.1280 C   0  0  0  0  0  0  0  0  0  0  0  0
    8.7720    0.4130    0.8190 C   0  0  0  0  0  0  0  0  0  0  0  0
    7.8580   -0.7450    1.8740 S   0  0  0  0  0  0  0  0  0  0  0  0
    8.7710   -1.9070    2.2820 O   0  0  0  0  0  0  0  0  0  0  0  0
    6.5580   -1.4720    0.8390 C   0  0  0  0  0  0  0  0  0  0  0  0
    6.6320   -0.7320   -0.5050 C   0  0  0  0  0  0  0  0  0  0  0  0
    1.0230    1.0710   -1.9850 C   0  0  0  0  0  0  0  0  0  0  0  0
    1.9770    1.6540   -3.3560 Cl  0  0  0  0  0  0  0  0  0  0  0  0
   -0.2290    0.5270   -2.1780 C   0  0  0  0  0  0  0  0  0  0  0  0
   -4.4370   -2.3530    1.2030 C   0  0  0  0  0  0  0  0  0  0  0  0
   -5.5830   -3.2550    1.1330 C   0  0  0  0  0  0  0  0  0  0  0  0
   -6.0840   -3.6850    2.2030 O   0  0  0  0  0  0  0  0  0  0  0  0
   -6.1510   -3.6650   -0.0830 N   0  0  0  0  0  0  0  0  0  0  0  0
  1  2  2  0
  2  3  1  0
  2 38  1  0
  3  4  2  0
  4  5  1  0
  4 35  1  0
  6  5  1  1
  6  7  1  0
  6 15  1  0
  7  8  1  0
  8  9  2  0
  8 14  1  0
  9 10  1  0
 10 11  2  0
 11 12  1  0
 11 14  1  0
 12 13  1  0
 15 16  2  0
 15 34  1  0
 16 17  1  0
 17 18  1  0
 17 19  2  0
 19 20  1  0
 19 32  1  0
 20 21  1  0
 21 22  2  0
 21 23  1  0
 23 24  2  0
 23 25  1  0
 25 26  1  0
 25 31  1  0
 26 27  1  0
 28 27  1  6
 28 29  2  0
 28 30  1  0
 30 31  1  0
 32 33  1  0
 32 34  2  0
 35 36  1  0
 36 37  2  0
 36 38  1  0
M  CHG  1   6   1
M  END
