
     RDKit          3D

 39 41  0  0  0  0  0  0  0  0999 V2000
   -6.3840   -2.9510   -1.8050 C   0  0  0  0  0  0  0  0  0  0  0  0
   -5.4990   -2.7410   -0.6450 C   0  0  0  0  0  0  0  0  0  0  0  0
   -5.0750   -3.7090    0.0110 O   0  0  0  0  0  0  0  0  0  0  0  0
   -5.1320   -1.4350   -0.2790 N   0  0  0  0  0  0  0  0  0  0  0  0
   -4.0920   -1.0780    0.3200 C   0  0  0  0  0  0  0  0  0  0  0  0
   -2.8280   -2.2440    0.8380 S   0  0  0  0  0  0  0  0  0  0  0  0
   -1.7770   -1.0100    1.5540 C   0  0  0  0  0  0  0  0  0  0  0  0
   -0.4970   -1.3540    2.1940 C   0  0  0  0  0  0  0  0  0  0  0  0
    0.1940   -0.4480    2.6870 O   0  0  0  0  0  0  0  0  0  0  0  0
   -0.0470   -2.6910    2.2530 N   0  0  0  0  0  0  0  0  0  0  0  0
    1.1980   -3.0760    2.8690 C   0  0  0  0  0  0  0  0  0  0  0  0
    2.3500   -2.3890    2.2060 C   0  0  0  0  0  0  0  0  0  0  0  0
    2.9920   -1.2680    2.6530 C   0  0  0  0  0  0  0  0  0  0  0  0
    3.9830   -1.0260    1.6950 C   0  0  0  0  0  0  0  0  0  0  0  0
    3.9050   -1.9900    0.7260 C   0  0  0  0  0  0  0  0  0  0  0  0
    4.7180   -2.1600   -0.4620 C   0  0  0  0  0  0  0  0  0  0  0  0
    4.3020   -3.1580   -1.2070 O   0  0  0  0  0  0  0  0  0  0  0  0
    5.8210   -1.4520   -0.9050 N   0  0  0  0  0  0  0  0  0  0  0  0
    6.3950   -1.8650   -2.2290 C   0  0  0  0  0  0  0  0  0  0  0  0
    6.7600   -0.5750   -2.9060 C   0  0  0  0  0  0  0  0  0  0  0  0
    5.9380    0.6150   -2.4660 C   0  0  1  0  0  0  0  0  0  0  0  0
    6.3300    1.6880   -3.2390 F   0  0  0  0  0  0  0  0  0  0  0  0
    4.1990    0.3550   -2.6980 Cl  0  0  0  0  0  0  0  0  0  0  0  0
    6.1840    0.9400   -0.9980 C   0  0  2  0  0  0  0  0  0  0  0  0
    7.1930    1.9460   -0.8610 N   0  0  0  0  0  0  0  0  0  0  0  0
    8.0230    1.8180    0.6720 S   0  0  0  0  0  0  0  0  0  0  0  0
    9.2420    2.7560    0.6660 O   0  0  0  0  0  0  0  0  0  0  0  0
    6.5580   -0.3720   -0.3100 C   0  0  0  0  0  0  0  0  0  0  0  0
    2.9020   -2.7720    1.1010 O   0  0  0  0  0  0  0  0  0  0  0  0
   -2.3280    0.1360    1.4100 C   0  0  0  0  0  0  0  0  0  0  0  0
   -3.6140    0.2120    0.7390 C   0  0  0  0  0  0  0  0  0  0  0  0
   -4.2470    1.3580    0.5560 C   0  0  0  0  0  0  0  0  0  0  0  0
   -5.4700    1.7060   -0.0390 C   0  0  0  0  0  0  0  0  0  0  0  0
   -6.5070    0.9240   -0.6720 C   0  0  0  0  0  0  0  0  0  0  0  0
   -5.7500    3.0580   -0.0150 C   0  0  0  0  0  0  0  0  0  0  0  0
   -4.6090    4.1330    0.7150 Cl  0  0  0  0  0  0  0  0  0  0  0  0
   -6.9320    3.5670   -0.5640 N   0  0  0  0  0  0  0  0  0  0  0  0
   -8.1110    3.8230    0.2450 C   0  0  0  0  0  0  0  0  0  0  0  0
   -6.9940    3.8550   -1.9850 C   0  0  0  0  0  0  0  0  0  0  0  0
  1  2  1  0
  2  3  2  0
  2  4  1  0
  4  5  2  3
  5  6  1  0
  5 31  1  0
  6  7  1  0
  7  8  1  0
  7 30  2  0
  8  9  2  0
  8 10  1  0
 10 11  1  0
 11 12  1  0
 12 13  2  0
 12 29  1  0
 13 14  1  0
 14 15  2  0
 15 16  1  0
 15 29  1  0
 16 17  2  0
 16 18  1  0
 18 19  1  0
 18 28  1  0
 19 20  1  0
 20 21  1  0
 21 22  1  6
 21 23  1  0
 21 24  1  0
 24 25  1  6
 24 28  1  0
 25 26  1  0
 26 27  2  0
 30 31  1  0
 31 32  2  3
 32 33  1  0
 33 34  1  0
 33 35  2  3
 35 36  1  0
 35 37  1  0
 37 38  1  0
 37 39  1  0
M  CHG  1  25   1
M  END
