
     RDKit          3D

 40 43  0  0  0  0  0  0  0  0999 V2000
   -2.7580   -2.6940    3.2430 C   0  0  0  0  0  0  0  0  0  0  0  0
   -3.6080   -3.3060    2.1530 C   0  0  0  0  0  0  0  0  0  0  0  0
   -4.4900   -2.3120    1.4760 C   0  0  1  0  0  0  0  0  0  0  0  0
   -5.4060   -1.7220    2.5580 C   0  0  0  0  0  0  0  0  0  0  0  0
   -6.3460   -0.6930    1.9550 C   0  0  0  0  0  0  0  0  0  0  0  0
   -3.7660   -1.1550    0.8730 C   0  0  0  0  0  0  0  0  0  0  0  0
   -2.7910   -1.5200   -0.1440 N   0  0  0  0  0  0  0  0  0  0  0  0
   -1.7740   -0.4980   -0.0700 C   0  0  0  0  0  0  0  0  0  0  0  0
   -0.4000   -0.9320   -0.4530 C   0  0  1  0  0  0  0  0  0  0  0  0
   -0.3760   -1.3280   -1.7750 O   0  0  0  0  0  0  0  0  0  0  0  0
    0.6650    0.1060   -0.2070 C   0  0  2  0  0  0  0  0  0  0  0  0
    0.4210    1.3000   -1.0330 C   0  0  0  0  0  0  0  0  0  0  0  0
    1.4130    2.4160   -0.8580 C   0  0  1  0  0  0  0  0  0  0  0  0
    1.5250    2.9800    0.5090 C   0  0  0  0  0  0  0  0  0  0  0  0
    2.2750    4.3130    0.3690 C   0  0  0  0  0  0  0  0  0  0  0  0
    3.5770    4.1600   -0.3530 C   0  0  0  0  0  0  0  0  0  0  0  0
    3.4060    3.4850   -1.7200 C   0  0  0  0  0  0  0  0  0  0  0  0
    2.7880    2.1140   -1.3930 C   0  0  0  0  0  0  0  0  0  0  0  0
    1.9420   -0.5420   -0.5520 N   0  0  0  0  0  0  0  0  0  0  0  0
    2.8810   -0.8820    0.4720 C   0  0  0  0  0  0  0  0  0  0  0  0
    2.5770   -0.6110    1.6470 O   0  0  0  0  0  0  0  0  0  0  0  0
    4.0950   -1.4910    0.2000 O   0  0  0  0  0  0  0  0  0  0  0  0
    4.9600   -1.7910    1.2810 C   0  0  1  0  0  0  0  0  0  0  0  0
    5.3790   -3.2350    1.2870 C   0  0  0  0  0  0  0  0  0  0  0  0
    6.7130   -3.3060    1.5670 O   0  0  0  0  0  0  0  0  0  0  0  0
    7.1810   -2.0650    1.9100 C   0  0  1  0  0  0  0  0  0  0  0  0
    8.4350   -1.7850    1.3560 O   0  0  0  0  0  0  0  0  0  0  0  0
    8.1510   -1.8940   -0.0240 C   0  0  0  0  0  0  0  0  0  0  0  0
    6.8600   -1.1280   -0.2250 C   0  0  0  0  0  0  0  0  0  0  0  0
    6.2920   -1.0940    1.1610 C   0  0  1  0  0  0  0  0  0  0  0  0
   -3.5950   -1.5330   -1.6630 S   0  0  1  0  0  0  0  0  0  0  0  0
   -2.7090   -2.1170   -2.7130 O   0  0  0  0  0  0  0  0  0  0  0  0
   -4.7760   -2.5140   -1.5190 O   0  0  0  0  0  0  0  0  0  0  0  0
   -4.2390    0.0360   -2.1080 C   0  0  0  0  0  0  0  0  0  0  0  0
   -5.5420    0.3350   -1.7750 C   0  0  0  0  0  0  0  0  0  0  0  0
   -6.0790    1.5640   -2.1100 C   0  0  0  0  0  0  0  0  0  0  0  0
   -5.3430    2.5320   -2.7830 C   0  0  0  0  0  0  0  0  0  0  0  0
   -5.9560    3.7620   -3.0920 N   0  0  0  0  0  0  0  0  0  0  0  0
   -4.0390    2.2110   -3.1080 C   0  0  0  0  0  0  0  0  0  0  0  0
   -3.4870    0.9800   -2.7770 C   0  0  0  0  0  0  0  0  0  0  0  0
  1  2  1  0
  3  2  1  1
  3  4  1  0
  3  6  1  0
  4  5  1  0
  6  7  1  0
  7  8  1  0
 31  7  1  1
  8  9  1  0
  9 10  1  6
  9 11  1  0
 11 12  1  6
 11 19  1  0
 13 12  1  1
 13 14  1  0
 13 18  1  0
 14 15  1  0
 15 16  1  0
 16 17  1  0
 17 18  1  0
 19 20  1  0
 20 21  2  0
 20 22  1  0
 23 22  1  6
 23 24  1  0
 23 30  1  0
 24 25  1  0
 26 25  1  6
 26 27  1  0
 26 30  1  0
 27 28  1  0
 28 29  1  0
 30 29  1  6
 31 32  2  0
 31 33  2  0
 31 34  1  0
 34 35  2  0
 34 40  1  0
 35 36  1  0
 36 37  2  0
 37 38  1  0
 37 39  1  0
 39 40  2  0
M  END
