
     RDKit          3D

 40 42  0  0  0  0  0  0  0  0999 V2000
   -4.4380   -5.0710   -2.2410 C   0  0  0  0  0  0  0  0  0  0  0  0
   -4.5390   -4.3190   -0.9120 C   0  0  0  0  0  0  0  0  0  0  0  0
   -3.1450   -4.0520   -0.4450 C   0  0  0  0  0  0  0  0  0  0  0  0
   -3.1260   -3.3620    0.7590 O   0  0  0  0  0  0  0  0  0  0  0  0
   -3.6540   -2.1070    0.9210 C   0  0  0  0  0  0  0  0  0  0  0  0
   -4.9650   -1.9210    1.3060 C   0  0  0  0  0  0  0  0  0  0  0  0
   -5.8380   -3.0220    1.5670 N   0  0  0  0  0  0  0  0  0  0  0  0
   -5.4330   -0.6200    1.4520 C   0  0  0  0  0  0  0  0  0  0  0  0
   -4.6240    0.4530    1.2220 C   0  0  0  0  0  0  0  0  0  0  0  0
   -5.1970    1.7980    1.3860 C   0  0  0  0  0  0  0  0  0  0  0  0
   -4.4430    2.7280    1.7580 O   0  0  0  0  0  0  0  0  0  0  0  0
   -6.5750    2.0400    1.1260 N   0  0  0  0  0  0  0  0  0  0  0  0
   -7.1700    3.3540    1.2790 C   0  0  1  0  0  0  0  0  0  0  0  0
   -7.3510    3.8720   -0.1630 C   0  0  0  0  0  0  0  0  0  0  0  0
   -8.5540    3.3310    1.8660 C   0  0  0  0  0  0  0  0  0  0  0  0
   -9.3690    2.5860    0.9980 O   0  0  0  0  0  0  0  0  0  0  0  0
   -3.3090    0.2810    0.8360 C   0  0  0  0  0  0  0  0  0  0  0  0
   -2.8200   -0.9870    0.6830 C   0  0  0  0  0  0  0  0  0  0  0  0
   -1.5020   -1.2670    0.2590 N   0  0  0  0  0  0  0  0  0  0  0  0
   -0.5120   -0.3110   -0.0360 C   0  0  0  0  0  0  0  0  0  0  0  0
   -0.7310    0.8960    0.0860 O   0  0  0  0  0  0  0  0  0  0  0  0
    0.8510   -0.7300   -0.5170 C   0  0  0  0  0  0  0  0  0  0  0  0
    1.1430    0.2130   -2.0210 S   0  0  0  0  0  0  0  0  0  0  0  0
    1.3420    1.9500   -1.7570 C   0  0  0  0  0  0  0  0  0  0  0  0
    2.6780    2.3640   -1.2070 C   0  0  1  0  0  0  0  0  0  0  0  0
    3.0810    1.8350    0.0990 C   0  0  0  0  0  0  0  0  0  0  0  0
    4.2110    0.8380   -0.2210 C   0  0  0  0  0  0  0  0  0  0  0  0
    4.7540    1.3570   -1.4800 C   0  0  0  0  0  0  0  0  0  0  0  0
    5.9150    1.3820   -2.0710 C   0  0  0  0  0  0  0  0  0  0  0  0
    7.1910    0.9160   -1.7800 C   0  0  0  0  0  0  0  0  0  0  0  0
    8.1090    1.3050   -2.6860 O   0  0  0  0  0  0  0  0  0  0  0  0
    7.7310    0.1100   -0.7160 C   0  0  0  0  0  0  0  0  0  0  0  0
    7.0800   -0.7510    0.0920 C   0  0  0  0  0  0  0  0  0  0  0  0
    7.7100   -1.4170    1.1520 C   0  0  0  0  0  0  0  0  0  0  0  0
    9.0410   -1.2010    1.3920 C   0  0  0  0  0  0  0  0  0  0  0  0
    9.7570   -0.3400    0.6040 C   0  0  0  0  0  0  0  0  0  0  0  0
   11.2200   -0.0810    0.8370 C   0  0  0  0  0  0  0  0  0  0  0  0
   11.6340    0.8870   -0.0600 O   0  0  0  0  0  0  0  0  0  0  0  0
    9.1030    0.2940   -0.4230 C   0  0  0  0  0  0  0  0  0  0  0  0
    3.6340    1.9520   -2.1250 O   0  0  0  0  0  0  0  0  0  0  0  0
  1  2  1  0
  2  3  1  0
  3  4  1  0
  4  5  1  0
  5  6  2  0
  5 18  1  0
  6  7  1  0
  6  8  1  0
  8  9  2  0
  9 10  1  0
  9 17  1  0
 10 11  2  0
 10 12  1  0
 12 13  1  0
 13 14  1  6
 13 15  1  0
 15 16  1  0
 17 18  2  0
 18 19  1  0
 19 20  1  0
 20 21  2  0
 20 22  1  0
 22 23  1  0
 23 24  1  0
 25 24  1  6
 25 26  1  0
 25 40  1  0
 26 27  1  0
 27 28  1  0
 28 29  2  3
 28 40  1  0
 29 30  1  0
 30 31  2  0
 30 32  1  0
 32 33  2  0
 32 39  1  0
 33 34  1  0
 34 35  2  0
 35 36  1  0
 36 37  1  0
 36 39  2  0
 37 38  1  0
M  END
