
     RDKit          3D

 40 42  0  0  0  0  0  0  0  0999 V2000
   -9.1960   -2.2880   -0.1100 C   0  0  0  0  0  0  0  0  0  0  0  0
   -9.8720   -0.9880    0.3450 C   0  0  0  0  0  0  0  0  0  0  0  0
  -11.1420   -0.7330   -0.0030 C   0  0  0  0  0  0  0  0  0  0  0  0
  -11.6930    0.4790    0.4910 C   0  0  0  0  0  0  0  0  0  0  0  0
  -10.3870    1.1640    1.4010 S   0  0  0  0  0  0  0  0  0  0  0  0
   -9.1920   -0.1170    1.1180 C   0  0  0  0  0  0  0  0  0  0  0  0
   -7.8010   -0.0730    1.6460 C   0  0  0  0  0  0  0  0  0  0  0  0
   -6.8300    0.3940    0.5990 C   0  0  1  0  0  0  0  0  0  0  0  0
   -7.1630    1.6570    0.1720 O   0  0  0  0  0  0  0  0  0  0  0  0
   -5.3890    0.2610    1.0340 C   0  0  1  0  0  0  0  0  0  0  0  0
   -5.2210   -1.1440    1.5710 C   0  0  0  0  0  0  0  0  0  0  0  0
   -4.4910    0.4760    0.0680 O   0  0  0  0  0  0  0  0  0  0  0  0
   -3.5070    1.3390    0.0780 C   0  0  0  0  0  0  0  0  0  0  0  0
   -2.4050    1.2870    1.0840 C   0  0  0  0  0  0  0  0  0  0  0  0
   -1.6950    0.0990    1.0720 O   0  0  0  0  0  0  0  0  0  0  0  0
   -1.1560   -0.2460   -0.1290 C   0  0  0  0  0  0  0  0  0  0  0  0
   -0.4010   -1.5340   -0.0310 C   0  0  0  0  0  0  0  0  0  0  0  0
    0.7790   -1.4750    0.8800 C   0  0  0  0  0  0  0  0  0  0  0  0
    1.7610   -0.5080    0.4500 N   0  0  0  0  0  0  0  0  0  0  0  0
    3.0200   -0.2730    1.0210 C   0  0  0  0  0  0  0  0  0  0  0  0
    3.3920   -0.9490    1.9990 O   0  0  0  0  0  0  0  0  0  0  0  0
    3.9420    0.7460    0.5000 C   0  0  0  0  0  0  0  0  0  0  0  0
    5.1680    0.3150   -0.0400 C   0  0  0  0  0  0  0  0  0  0  0  0
    6.0300    1.1760   -0.6660 C   0  0  0  0  0  0  0  0  0  0  0  0
    7.2520    0.8070   -1.2580 N   0  0  0  0  0  0  0  0  0  0  0  0
    7.9280   -0.4270   -1.1510 C   0  0  0  0  0  0  0  0  0  0  0  0
    7.4580   -1.3460   -0.4530 O   0  0  0  0  0  0  0  0  0  0  0  0
    9.1850   -0.6990   -1.8400 C   0  0  0  0  0  0  0  0  0  0  0  0
    9.5040    0.0940   -2.9340 C   0  0  0  0  0  0  0  0  0  0  0  0
   10.6930   -0.1190   -3.6230 C   0  0  0  0  0  0  0  0  0  0  0  0
   11.5600   -1.1130   -3.2310 C   0  0  0  0  0  0  0  0  0  0  0  0
   11.2650   -1.9050   -2.1570 C   0  0  0  0  0  0  0  0  0  0  0  0
   12.1490   -2.9240   -1.7470 O   0  0  0  0  0  0  0  0  0  0  0  0
   10.0720   -1.6760   -1.4800 C   0  0  0  0  0  0  0  0  0  0  0  0
    5.6510    2.4960   -0.7470 C   0  0  0  0  0  0  0  0  0  0  0  0
    4.4640    2.9650   -0.2320 C   0  0  0  0  0  0  0  0  0  0  0  0
    3.6000    2.0540    0.4040 C   0  0  0  0  0  0  0  0  0  0  0  0
    2.3710    2.5460    1.0080 C   0  0  0  0  0  0  0  0  0  0  0  0
    1.5140    1.7700    1.8270 N   0  0  0  0  0  0  0  0  0  0  0  0
    2.0050    3.7580    0.8140 O   0  0  0  0  0  0  0  0  0  0  0  0
  1  2  1  0
  2  3  1  0
  2  6  2  0
  3  4  2  0
  4  5  1  0
  5  6  1  0
  6  7  1  0
  7  8  1  0
  8  9  1  1
  8 10  1  0
 10 11  1  6
 10 12  1  0
 12 13  1  0
 13 14  1  0
 14 15  1  0
 15 16  1  0
 16 17  1  0
 17 18  1  0
 18 19  1  0
 19 20  1  0
 20 21  2  0
 20 22  1  0
 22 23  2  0
 22 37  1  0
 23 24  1  0
 24 25  1  0
 24 35  2  0
 25 26  1  0
 26 27  2  0
 26 28  1  0
 28 29  2  0
 28 34  1  0
 29 30  1  0
 30 31  2  0
 31 32  1  0
 32 33  1  0
 32 34  2  0
 35 36  1  0
 36 37  2  0
 37 38  1  0
 38 39  1  0
 38 40  2  0
M  END
