
     RDKit          3D

 38 42  0  0  0  0  0  0  0  0999 V2000
    8.4790    3.5850   -0.8790 C   0  0  0  0  0  0  0  0  0  0  0  0
    7.2810    3.7700   -0.0060 C   0  0  0  0  0  0  0  0  0  0  0  0
    6.5970    2.4570    0.2680 C   0  0  0  0  0  0  0  0  0  0  0  0
    5.6230    1.9910   -0.5340 N   0  0  0  0  0  0  0  0  0  0  0  0
    5.0480    0.7910   -0.2230 C   0  0  0  0  0  0  0  0  0  0  0  0
    5.4550    0.0770    0.8840 C   0  0  0  0  0  0  0  0  0  0  0  0
    6.4530    0.6110    1.6580 C   0  0  0  0  0  0  0  0  0  0  0  0
    6.8220   -0.0420    2.6670 O   0  0  0  0  0  0  0  0  0  0  0  0
    6.9930    1.7850    1.3260 O   0  0  0  0  0  0  0  0  0  0  0  0
    4.7590   -1.2080    1.1330 C   0  0  0  0  0  0  0  0  0  0  0  0
    3.2670   -0.8500    1.0130 C   0  0  0  0  0  0  0  0  0  0  0  0
    2.9250   -0.3990   -0.3180 N   0  0  2  0  0  0  0  0  0  0  0  0
    2.2950   -1.5160   -0.9800 C   0  0  0  0  0  0  0  0  0  0  0  0
    0.8490   -1.6160   -0.7630 C   0  0  0  0  0  0  0  0  0  0  0  0
    0.0120   -0.8480   -0.0580 N   0  0  0  0  0  0  0  0  0  0  0  0
   -1.2450   -1.2930   -0.1230 C   0  0  0  0  0  0  0  0  0  0  0  0
   -2.4550   -0.7030    0.5280 C   0  0  2  0  0  0  0  0  0  0  0  0
   -3.0250   -1.7890    1.4510 C   0  0  0  0  0  0  0  0  0  0  0  0
   -4.4650   -2.0440    1.1790 C   0  0  0  0  0  0  0  0  0  0  0  0
   -5.2930   -0.7330    1.1600 C   0  0  0  0  0  0  0  0  0  0  0  0
   -4.6770    0.1520    0.2510 N   0  0  0  0  0  0  0  0  0  0  0  0
   -4.9830    1.4660   -0.0480 C   0  0  0  0  0  0  0  0  0  0  0  0
   -4.1460    2.0050   -0.9690 O   0  0  0  0  0  0  0  0  0  0  0  0
   -5.9580    2.4250    0.3590 C   0  0  0  0  0  0  0  0  0  0  0  0
   -5.9120    3.6850   -0.1220 O   0  0  0  0  0  0  0  0  0  0  0  0
   -6.8530    4.4240    0.3370 C   0  0  0  0  0  0  0  0  0  0  0  0
   -7.6100    3.6850    1.1770 C   0  0  0  0  0  0  0  0  0  0  0  0
   -7.0290    2.4020    1.1870 C   0  0  0  0  0  0  0  0  0  0  0  0
   -7.5810    1.2770    1.9790 C   0  0  0  0  0  0  0  0  0  0  0  0
   -3.5200   -0.4460   -0.4950 C   0  0  0  0  0  0  0  0  0  0  0  0
   -1.1930   -2.3850   -0.9010 N   0  0  0  0  0  0  0  0  0  0  0  0
    0.0470   -2.6390   -1.3240 C   0  0  0  0  0  0  0  0  0  0  0  0
    0.4890   -3.7120   -2.1650 C   0  0  0  0  0  0  0  0  0  0  0  0
   -0.1570   -4.6700   -2.7120 C   0  0  0  0  0  0  0  0  0  0  0  0
   -1.5450   -4.9720   -2.6530 C   0  0  0  0  0  0  0  0  0  0  0  0
   -1.8970   -6.0400   -3.3350 O   0  0  0  0  0  0  0  0  0  0  0  0
   -2.8360   -4.1790   -1.8430 Cl  0  0  0  0  0  0  0  0  0  0  0  0
    3.9760    0.2040   -1.0570 C   0  0  0  0  0  0  0  0  0  0  0  0
  1  2  1  0
  2  3  1  0
  3  4  2  0
  3  9  1  0
  4  5  1  0
  5  6  2  0
  5 38  1  0
  6  7  1  0
  6 10  1  0
  7  8  2  0
  7  9  1  0
 10 11  1  0
 11 12  1  0
 12 13  1  6
 12 38  1  0
 13 14  1  0
 14 15  1  0
 14 32  2  0
 15 16  1  0
 17 16  1  6
 16 31  2  0
 17 18  1  0
 17 30  1  0
 18 19  1  0
 19 20  1  0
 20 21  1  0
 21 22  1  0
 21 30  1  0
 22 23  2  0
 22 24  1  0
 24 25  1  0
 24 28  2  0
 25 26  1  0
 26 27  2  0
 27 28  1  0
 28 29  1  0
 31 32  1  0
 32 33  1  0
 33 34  2  3
 34 35  1  0
 35 36  2  0
 35 37  1  0
M  CHG  2   4   1  12   1
M  END
