
     RDKit          3D

 38 42  0  0  0  0  0  0  0  0999 V2000
    4.5120    2.7240   -2.4170 C   0  0  0  0  0  0  0  0  0  0  0  0
    5.5390    2.2000   -2.9750 C   0  0  0  0  0  0  0  0  0  0  0  0
    6.0870    0.8820   -2.7860 C   0  0  0  0  0  0  0  0  0  0  0  0
    7.1560    0.5440   -3.5140 C   0  0  0  0  0  0  0  0  0  0  0  0
    7.8820   -0.7150   -3.5020 C   0  0  0  0  0  0  0  0  0  0  0  0
    7.7810   -1.4050   -5.1590 Cl  0  0  0  0  0  0  0  0  0  0  0  0
    5.4680   -0.0770   -1.8580 C   0  0  0  0  0  0  0  0  0  0  0  0
    5.5840    0.3140   -0.3920 C   0  0  0  0  0  0  0  0  0  0  0  0
    4.9180   -0.7150    0.3630 N   0  0  0  0  0  0  0  0  0  0  0  0
    5.5550   -1.7970    0.8140 C   0  0  0  0  0  0  0  0  0  0  0  0
    6.7820   -1.9230    0.5690 O   0  0  0  0  0  0  0  0  0  0  0  0
    4.9140   -2.7470    1.5180 N   0  0  0  0  0  0  0  0  0  0  0  0
    3.5750   -2.6280    1.7960 C   0  0  0  0  0  0  0  0  0  0  0  0
    2.9700   -3.5970    2.4940 N   0  0  0  0  0  0  0  0  0  0  0  0
    1.6840   -3.5020    2.7640 C   0  0  0  0  0  0  0  0  0  0  0  0
    0.9890   -2.3990    2.3170 C   0  0  0  0  0  0  0  0  0  0  0  0
    1.5220   -1.3500    1.5930 C   0  0  0  0  0  0  0  0  0  0  0  0
    0.7950   -0.1740    1.1470 C   0  0  0  0  0  0  0  0  0  0  0  0
   -0.5850   -0.0270    1.3670 N   0  0  2  0  0  0  0  0  0  0  0  0
   -0.8650    0.3760    2.7430 C   0  0  0  0  0  0  0  0  0  0  0  0
   -2.0440    1.3520    2.7460 C   0  0  0  0  0  0  0  0  0  0  0  0
   -3.2840    0.6090    2.2760 C   0  0  0  0  0  0  0  0  0  0  0  0
   -3.3110    0.6260    0.7770 C   0  0  2  0  0  0  0  0  0  0  0  0
   -4.7450    0.6990    0.3710 C   0  0  0  0  0  0  0  0  0  0  0  0
   -5.2910    1.7430   -0.2580 N   0  0  0  0  0  0  0  0  0  0  0  0
   -6.5890    1.4860   -0.4740 C   0  0  0  0  0  0  0  0  0  0  0  0
   -6.8220    0.2280    0.0540 C   0  0  0  0  0  0  0  0  0  0  0  0
   -5.6890   -0.1850    0.5400 O   0  0  0  0  0  0  0  0  0  0  0  0
   -8.1180   -0.4870    0.0520 C   0  0  0  0  0  0  0  0  0  0  0  0
   -8.6950   -0.5640   -1.2130 O   0  0  0  0  0  0  0  0  0  0  0  0
   -8.3580    0.4850   -2.0400 C   0  0  0  0  0  0  0  0  0  0  0  0
   -8.6650    1.7360   -1.5100 O   0  0  0  0  0  0  0  0  0  0  0  0
   -7.5110    2.4400   -1.1580 C   0  0  0  0  0  0  0  0  0  0  0  0
   -2.6290   -0.5610    0.1320 C   0  0  0  0  0  0  0  0  0  0  0  0
   -1.4940   -1.0790    1.0360 C   0  0  0  0  0  0  0  0  0  0  0  0
    2.9000   -1.5130    1.3370 C   0  0  0  0  0  0  0  0  0  0  0  0
    3.5930   -0.5870    0.6320 C   0  0  0  0  0  0  0  0  0  0  0  0
    3.0570    0.4300    0.1900 O   0  0  0  0  0  0  0  0  0  0  0  0
  1  2  2  0
  2  3  1  0
  3  4  2  3
  3  7  1  0
  4  5  1  0
  5  6  1  0
  7  8  1  0
  8  9  1  0
  9 10  1  0
  9 37  1  0
 10 11  2  0
 10 12  1  0
 12 13  1  0
 13 14  2  0
 13 36  1  0
 14 15  1  0
 15 16  2  0
 16 17  1  0
 17 18  1  0
 17 36  2  0
 19 18  1  1
 19 20  1  0
 19 35  1  0
 20 21  1  0
 21 22  1  0
 22 23  1  0
 23 24  1  1
 23 34  1  0
 24 25  2  0
 24 28  1  0
 25 26  1  0
 26 27  2  0
 26 33  1  0
 27 28  1  0
 27 29  1  0
 29 30  1  0
 30 31  1  0
 31 32  1  0
 32 33  1  0
 34 35  1  0
 36 37  1  0
 37 38  2  0
M  CHG  2  19   1  25   1
M  END
