
     RDKit          3D

 38 42  0  0  0  0  0  0  0  0999 V2000
    9.1340   -1.5600    1.7280 C   0  0  0  0  0  0  0  0  0  0  0  0
    7.8390   -1.1710    1.9540 O   0  0  0  0  0  0  0  0  0  0  0  0
    7.6880    0.2210    1.9660 C   0  0  0  0  0  0  0  0  0  0  0  0
    8.0870    0.8400    0.6860 C   0  0  0  0  0  0  0  0  0  0  0  0
    9.4120    1.2540    0.5600 C   0  0  0  0  0  0  0  0  0  0  0  0
    9.8470    1.8320   -0.5910 C   0  0  0  0  0  0  0  0  0  0  0  0
    8.9500    1.9980   -1.6250 C   0  0  0  0  0  0  0  0  0  0  0  0
    9.4890    2.7410   -3.1170 Cl  0  0  0  0  0  0  0  0  0  0  0  0
    7.6440    1.5720   -1.4530 C   0  0  0  0  0  0  0  0  0  0  0  0
    7.2090    1.0020   -0.3230 N   0  0  0  0  0  0  0  0  0  0  0  0
    5.8520    0.5840   -0.2080 C   0  0  0  0  0  0  0  0  0  0  0  0
    4.8720    1.2920   -0.8560 C   0  0  0  0  0  0  0  0  0  0  0  0
    3.5330    0.9160   -0.7700 C   0  0  0  0  0  0  0  0  0  0  0  0
    3.2180   -0.1760   -0.0240 C   0  0  0  0  0  0  0  0  0  0  0  0
    1.8550   -0.6330    0.1180 C   0  0  0  0  0  0  0  0  0  0  0  0
    1.6630   -1.6590    0.8370 O   0  0  0  0  0  0  0  0  0  0  0  0
    0.8070    0.0480   -0.5240 N   0  0  0  0  0  0  0  0  0  0  0  0
   -0.5380   -0.3650   -0.4230 C   0  0  0  0  0  0  0  0  0  0  0  0
   -0.9410   -1.5880   -0.0190 C   0  0  0  0  0  0  0  0  0  0  0  0
   -2.2950   -1.8770    0.0630 C   0  0  0  0  0  0  0  0  0  0  0  0
   -3.2870   -0.9840   -0.2470 C   0  0  0  0  0  0  0  0  0  0  0  0
   -4.6280   -1.2510   -0.1720 O   0  0  0  0  0  0  0  0  0  0  0  0
   -5.1650   -2.4600    0.2280 C   0  0  1  0  0  0  0  0  0  0  0  0
   -6.1140   -2.2880    1.4240 C   0  0  0  0  0  0  0  0  0  0  0  0
   -6.9120   -3.5600    1.3440 C   0  0  0  0  0  0  0  0  0  0  0  0
   -6.9210   -3.9760   -0.0320 N   0  0  0  0  0  0  0  0  0  0  0  0
   -6.1580   -3.0210   -0.7910 C   0  0  0  0  0  0  0  0  0  0  0  0
   -2.8700    0.2860   -0.6660 C   0  0  0  0  0  0  0  0  0  0  0  0
   -3.9020    1.2500   -1.0000 C   0  0  0  0  0  0  0  0  0  0  0  0
   -3.5470    2.4160   -1.3860 O   0  0  0  0  0  0  0  0  0  0  0  0
   -5.2460    0.9960   -0.9280 O   0  0  0  0  0  0  0  0  0  0  0  0
   -6.2610    1.9170   -1.2460 C   0  0  0  0  0  0  0  0  0  0  0  0
   -6.1810    3.1330   -0.3560 C   0  0  1  0  0  0  0  0  0  0  0  0
   -7.2110    4.2290   -0.5720 C   0  0  0  0  0  0  0  0  0  0  0  0
   -7.2820    3.3730    0.6220 C   0  0  0  0  0  0  0  0  0  0  0  0
   -1.5370    0.5770   -0.7490 C   0  0  0  0  0  0  0  0  0  0  0  0
    4.2130   -0.8280    0.5860 N   0  0  0  0  0  0  0  0  0  0  0  0
    5.4850   -0.4880    0.5160 N   0  0  0  0  0  0  0  0  0  0  0  0
  1  2  1  0
  2  3  1  0
  3  4  1  0
  4  5  2  0
  4 10  1  0
  5  6  1  0
  6  7  2  0
  7  8  1  0
  7  9  1  0
  9 10  2  0
 10 11  1  0
 11 12  2  0
 11 38  1  0
 12 13  1  0
 13 14  2  0
 14 15  1  0
 14 37  1  0
 15 16  2  0
 15 17  1  0
 17 18  1  0
 18 19  2  0
 18 36  1  0
 19 20  1  0
 20 21  2  0
 21 22  1  0
 21 28  1  0
 23 22  1  6
 23 24  1  0
 23 27  1  0
 24 25  1  0
 25 26  1  0
 26 27  1  0
 28 29  1  0
 28 36  2  0
 29 30  2  0
 29 31  1  0
 31 32  1  0
 33 32  1  6
 33 34  1  0
 33 35  1  0
 34 35  1  0
 37 38  2  0
M  CHG  2  10   1  26   1
M  END
