
     RDKit          3D

 38 42  0  0  0  0  0  0  0  0999 V2000
   -5.7620   -0.5850    3.0850 C   0  0  0  0  0  0  0  0  0  0  0  0
   -4.7600   -1.2790    2.2380 C   0  0  0  0  0  0  0  0  0  0  0  0
   -3.8500   -2.1520    2.8260 C   0  0  0  0  0  0  0  0  0  0  0  0
   -2.9140   -2.8050    2.0650 C   0  0  0  0  0  0  0  0  0  0  0  0
   -2.8800   -2.5860    0.6800 C   0  0  0  0  0  0  0  0  0  0  0  0
   -3.7580   -1.7370    0.0850 C   0  0  0  0  0  0  0  0  0  0  0  0
   -3.7800   -1.5060   -1.3600 C   0  0  0  0  0  0  0  0  0  0  0  0
   -2.7080   -2.1830   -1.9730 O   0  0  0  0  0  0  0  0  0  0  0  0
   -1.4000   -1.8350   -1.6810 C   0  0  0  0  0  0  0  0  0  0  0  0
   -1.2240   -0.8880   -0.8540 O   0  0  0  0  0  0  0  0  0  0  0  0
   -0.2120   -2.5140   -2.2850 C   0  0  0  0  0  0  0  0  0  0  0  0
    0.9870   -1.9820   -1.7790 O   0  0  0  0  0  0  0  0  0  0  0  0
    1.3600   -0.6700   -1.8860 C   0  0  0  0  0  0  0  0  0  0  0  0
    0.6210    0.1480   -2.4620 O   0  0  0  0  0  0  0  0  0  0  0  0
    2.6660   -0.1540   -1.3180 C   0  0  0  0  0  0  0  0  0  0  0  0
    2.7680    1.2320   -1.5420 N   0  0  1  0  0  0  0  0  0  0  0  0
    1.6880    1.9460   -0.8150 C   0  0  0  0  0  0  0  0  0  0  0  0
    3.9930    1.8190   -1.1730 C   0  0  0  0  0  0  0  0  0  0  0  0
    4.2610    3.1600   -1.3460 N   0  0  0  0  0  0  0  0  0  0  0  0
    5.4500    3.4480   -0.9180 N   0  0  0  0  0  0  0  0  0  0  0  0
    6.0120    2.3110   -0.4470 C   0  0  0  0  0  0  0  0  0  0  0  0
    5.1070    1.3220   -0.6100 N   0  0  0  0  0  0  0  0  0  0  0  0
    5.7340    0.1390   -0.1000 C   0  0  0  0  0  0  0  0  0  0  0  0
    5.2320   -0.9970   -0.0640 O   0  0  0  0  0  0  0  0  0  0  0  0
    7.0800    0.5150    0.3760 C   0  0  0  0  0  0  0  0  0  0  0  0
    8.0550   -0.2670    0.9450 C   0  0  0  0  0  0  0  0  0  0  0  0
    9.2600    0.3150    1.3190 C   0  0  0  0  0  0  0  0  0  0  0  0
    9.4140    1.6670    1.0950 C   0  0  0  0  0  0  0  0  0  0  0  0
    8.4320    2.4420    0.5240 C   0  0  0  0  0  0  0  0  0  0  0  0
    7.2460    1.8340    0.1630 C   0  0  0  0  0  0  0  0  0  0  0  0
   -4.6890   -1.0940    0.8740 C   0  0  0  0  0  0  0  0  0  0  0  0
   -5.6250   -0.1960    0.2380 C   0  0  0  0  0  0  0  0  0  0  0  0
   -6.9100   -0.5240   -0.0860 C   0  0  0  0  0  0  0  0  0  0  0  0
   -7.7050    0.4210   -0.6910 C   0  0  0  0  0  0  0  0  0  0  0  0
   -7.2360    1.6670   -0.9690 N   0  0  0  0  0  0  0  0  0  0  0  0
   -5.9780    2.0370   -0.6680 C   0  0  0  0  0  0  0  0  0  0  0  0
   -5.3880    3.6540   -1.0360 Cl  0  0  0  0  0  0  0  0  0  0  0  0
   -5.1790    1.0840   -0.0600 C   0  0  0  0  0  0  0  0  0  0  0  0
  1  2  1  0
  2  3  2  0
  2 31  1  0
  3  4  1  0
  4  5  2  0
  5  6  1  0
  6  7  1  0
  6 31  2  0
  7  8  1  0
  8  9  1  0
  9 10  2  0
  9 11  1  0
 11 12  1  0
 12 13  1  0
 13 14  2  0
 13 15  1  0
 15 16  1  0
 16 17  1  1
 16 18  1  0
 18 19  2  0
 18 22  1  0
 19 20  1  0
 20 21  2  0
 21 22  1  0
 21 30  1  0
 22 23  1  0
 23 24  2  0
 23 25  1  0
 25 26  2  0
 25 30  1  0
 26 27  1  0
 27 28  2  0
 28 29  1  0
 29 30  2  0
 31 32  1  0
 32 33  2  0
 32 38  1  0
 33 34  1  0
 34 35  2  0
 35 36  1  0
 36 37  1  0
 36 38  2  0
M  CHG  2  16   1  35   1
M  END
