
     RDKit          3D

 38 42  0  0  0  0  0  0  0  0999 V2000
    7.6240   -3.6820    0.3550 C   0  0  0  0  0  0  0  0  0  0  0  0
    6.5260   -2.8490    0.0540 O   0  0  0  0  0  0  0  0  0  0  0  0
    6.7460   -1.5050   -0.1670 C   0  0  0  0  0  0  0  0  0  0  0  0
    8.0270   -1.0070   -0.0900 C   0  0  0  0  0  0  0  0  0  0  0  0
    8.2740    0.3240   -0.3040 C   0  0  0  0  0  0  0  0  0  0  0  0
    7.2090    1.1520   -0.6000 C   0  0  0  0  0  0  0  0  0  0  0  0
    5.9160    0.6300   -0.6750 C   0  0  0  0  0  0  0  0  0  0  0  0
    5.6420   -0.6980   -0.4640 C   0  0  0  0  0  0  0  0  0  0  0  0
    4.3650   -1.2990   -0.5350 N   0  0  0  0  0  0  0  0  0  0  0  0
    3.1370   -0.6330   -0.7600 C   0  0  0  0  0  0  0  0  0  0  0  0
    3.1120    0.5930   -0.9090 O   0  0  0  0  0  0  0  0  0  0  0  0
    1.9150   -1.4300   -0.8080 C   0  0  0  0  0  0  0  0  0  0  0  0
    0.7210   -0.7510   -0.9810 O   0  0  0  0  0  0  0  0  0  0  0  0
    0.1770    0.2060   -0.1330 C   0  0  0  0  0  0  0  0  0  0  0  0
    0.8240    0.5030    0.8950 O   0  0  0  0  0  0  0  0  0  0  0  0
   -1.1010    0.8880   -0.3800 C   0  0  0  0  0  0  0  0  0  0  0  0
   -1.0030    2.0330   -1.1950 C   0  0  0  0  0  0  0  0  0  0  0  0
    0.3140    2.4570   -1.7620 C   0  0  0  0  0  0  0  0  0  0  0  0
    0.7570    1.4040   -3.1200 Cl  0  0  0  0  0  0  0  0  0  0  0  0
   -2.1220    2.7180   -1.4330 N   0  0  0  0  0  0  0  0  0  0  0  0
   -3.2910    2.3220   -0.9120 C   0  0  0  0  0  0  0  0  0  0  0  0
   -4.5080    3.0370   -1.1620 N   0  0  0  0  0  0  0  0  0  0  0  0
   -5.4150    2.6560   -2.2420 C   0  0  0  0  0  0  0  0  0  0  0  0
   -6.4930    3.6910   -2.2420 C   0  0  0  0  0  0  0  0  0  0  0  0
   -6.4720    4.2610   -0.8500 C   0  0  0  0  0  0  0  0  0  0  0  0
   -5.0140    4.1730   -0.4540 C   0  0  0  0  0  0  0  0  0  0  0  0
   -3.3830    1.2420   -0.1430 N   0  0  0  0  0  0  0  0  0  0  0  0
   -2.2880    0.4670    0.1640 C   0  0  0  0  0  0  0  0  0  0  0  0
   -2.4560   -0.6390    1.0840 C   0  0  0  0  0  0  0  0  0  0  0  0
   -3.6200   -0.6850    1.8460 C   0  0  0  0  0  0  0  0  0  0  0  0
   -3.9030   -1.7380    2.7200 C   0  0  0  0  0  0  0  0  0  0  0  0
   -3.0240   -2.7750    2.8550 C   0  0  0  0  0  0  0  0  0  0  0  0
   -1.8810   -2.7340    2.1110 C   0  0  0  0  0  0  0  0  0  0  0  0
   -1.5920   -1.6710    1.2250 C   0  0  0  0  0  0  0  0  0  0  0  0
   -1.1190   -3.9480    2.4330 C   0  0  0  0  0  0  0  0  0  0  0  0
    0.0410   -4.2340    2.0560 O   0  0  0  0  0  0  0  0  0  0  0  0
   -1.9610   -4.8130    3.3020 C   0  0  0  0  0  0  0  0  0  0  0  0
   -3.0560   -3.9670    3.6600 N   0  0  0  0  0  0  0  0  0  0  0  0
  1  2  1  0
  2  3  1  0
  3  4  2  0
  3  8  1  0
  4  5  1  0
  5  6  2  0
  6  7  1  0
  7  8  2  0
  8  9  1  0
  9 10  1  0
 10 11  2  0
 10 12  1  0
 12 13  1  0
 13 14  1  0
 14 15  2  0
 14 16  1  0
 16 17  2  0
 16 28  1  0
 17 18  1  0
 17 20  1  0
 18 19  1  0
 20 21  2  0
 21 22  1  0
 21 27  1  0
 22 23  1  0
 22 26  1  0
 23 24  1  0
 24 25  1  0
 25 26  1  0
 27 28  2  0
 28 29  1  0
 29 30  2  0
 29 34  1  0
 30 31  1  0
 31 32  2  0
 32 33  1  0
 32 38  1  0
 33 34  2  0
 33 35  1  0
 35 36  2  0
 35 37  1  0
 37 38  1  0
M  CHG  2  20   1  27   1
M  END
