
     RDKit          3D

 39 42  0  0  0  0  0  0  0  0999 V2000
   -2.7510    0.4920   -4.2410 C   0  0  0  0  0  0  0  0  0  0  0  0
   -2.8730    0.7630   -2.7470 C   0  0  0  0  0  0  0  0  0  0  0  0
   -3.0280   -0.5570   -2.0500 C   0  0  2  0  0  0  0  0  0  0  0  0
   -4.2890   -1.2120   -2.6270 C   0  0  0  0  0  0  0  0  0  0  0  0
   -3.2380   -0.4540   -0.5580 C   0  0  0  0  0  0  0  0  0  0  0  0
   -2.1910    0.1960    0.1390 N   0  0  0  0  0  0  0  0  0  0  0  0
   -1.6110   -0.6420    1.1350 C   0  0  0  0  0  0  0  0  0  0  0  0
   -0.1140   -0.6020    1.1770 C   0  0  1  0  0  0  0  0  0  0  0  0
    0.3910   -1.4260    2.1510 O   0  0  0  0  0  0  0  0  0  0  0  0
    0.5670   -0.7890   -0.1390 C   0  0  2  0  0  0  0  0  0  0  0  0
    0.4690   -2.1590   -0.7320 C   0  0  0  0  0  0  0  0  0  0  0  0
    1.0630   -3.2300    0.1120 C   0  0  0  0  0  0  0  0  0  0  0  0
    0.3260   -3.9390    1.0270 C   0  0  0  0  0  0  0  0  0  0  0  0
    0.9350   -4.9100    1.7770 C   0  0  0  0  0  0  0  0  0  0  0  0
    2.2660   -5.2110    1.6550 C   0  0  0  0  0  0  0  0  0  0  0  0
    2.9870   -4.4760    0.7190 C   0  0  0  0  0  0  0  0  0  0  0  0
    2.4020   -3.5000   -0.0430 C   0  0  0  0  0  0  0  0  0  0  0  0
    1.9800   -0.4510    0.1160 N   0  0  0  0  0  0  0  0  0  0  0  0
    2.6370    0.6340   -0.5150 C   0  0  0  0  0  0  0  0  0  0  0  0
    1.9700    1.3240   -1.3240 O   0  0  0  0  0  0  0  0  0  0  0  0
    3.9640    0.9560   -0.2790 O   0  0  0  0  0  0  0  0  0  0  0  0
    4.5510    2.0370   -0.9340 C   0  0  1  0  0  0  0  0  0  0  0  0
    5.1330    3.0650   -0.0160 C   0  0  0  0  0  0  0  0  0  0  0  0
    6.3370    3.4840   -0.5160 O   0  0  0  0  0  0  0  0  0  0  0  0
    6.4620    3.0150   -1.8150 C   0  0  1  0  0  0  0  0  0  0  0  0
    7.7340    2.6320   -2.1570 O   0  0  0  0  0  0  0  0  0  0  0  0
    8.0260    1.5430   -1.3470 C   0  0  0  0  0  0  0  0  0  0  0  0
    6.7340    0.7990   -1.1060 C   0  0  0  0  0  0  0  0  0  0  0  0
    5.7270    1.6670   -1.7890 C   0  0  1  0  0  0  0  0  0  0  0  0
   -2.5410    1.7700    0.7130 S   0  0  2  0  0  0  0  0  0  0  0  0
   -2.8700    2.7490   -0.3550 O   0  0  0  0  0  0  0  0  0  0  0  0
   -1.2930    2.2480    1.4440 O   0  0  0  0  0  0  0  0  0  0  0  0
   -3.8770    1.7020    1.8680 C   0  0  0  0  0  0  0  0  0  0  0  0
   -5.1750    1.8230    1.4280 C   0  0  0  0  0  0  0  0  0  0  0  0
   -6.2620    1.7790    2.2910 C   0  0  0  0  0  0  0  0  0  0  0  0
   -6.0600    1.6090    3.6400 C   0  0  0  0  0  0  0  0  0  0  0  0
   -7.1550    1.5590    4.5600 N   0  0  0  0  0  0  0  0  0  0  0  0
   -4.7580    1.4870    4.0910 C   0  0  0  0  0  0  0  0  0  0  0  0
   -3.6780    1.5330    3.2200 C   0  0  0  0  0  0  0  0  0  0  0  0
  1  2  1  0
  2  3  1  0
  3  4  1  6
  3  5  1  0
  5  6  1  0
  6  7  1  0
 30  6  1  6
  7  8  1  0
  8  9  1  1
  8 10  1  0
 10 11  1  1
 10 18  1  0
 11 12  1  0
 12 13  2  0
 12 17  1  0
 13 14  1  0
 14 15  2  0
 15 16  1  0
 16 17  2  0
 18 19  1  0
 19 20  2  0
 19 21  1  0
 22 21  1  1
 22 23  1  0
 22 29  1  0
 23 24  1  0
 25 24  1  1
 25 26  1  0
 25 29  1  0
 26 27  1  0
 27 28  1  0
 29 28  1  1
 30 31  2  0
 30 32  2  0
 30 33  1  0
 33 34  2  0
 33 39  1  0
 34 35  1  0
 35 36  2  0
 36 37  1  0
 36 38  1  0
 38 39  2  0
M  END
