
     RDKit          3D

 39 42  0  0  0  0  0  0  0  0999 V2000
   -3.1160   -2.5460   -3.0650 N   0  0  0  0  0  0  0  0  0  0  0  0
   -3.8700   -1.5080   -2.2610 C   0  0  0  0  0  0  0  0  0  0  0  0
   -3.8210   -0.3340   -2.6320 C   0  0  0  0  0  0  0  0  0  0  0  0
   -5.1000    0.0390   -0.8820 Cl  0  0  0  0  0  0  0  0  0  0  0  0
   -3.8410    1.0740   -2.8460 C   0  0  0  0  0  0  0  0  0  0  0  0
   -3.4850    1.4940   -4.0780 C   0  0  0  0  0  0  0  0  0  0  0  0
   -3.1040    0.5190   -5.1320 C   0  0  1  0  0  0  0  0  0  0  0  0
   -4.0860   -0.4240   -5.3450 F   0  0  0  0  0  0  0  0  0  0  0  0
   -2.6230    1.2500   -6.6490 Cl  0  0  0  0  0  0  0  0  0  0  0  0
   -4.0810    2.1150   -1.9250 N   0  0  0  0  0  0  0  0  0  0  0  0
   -4.8600    3.2560   -2.2420 C   0  0  0  0  0  0  0  0  0  0  0  0
   -5.7850    3.6370   -1.0970 C   0  0  0  0  0  0  0  0  0  0  0  0
   -5.1190    3.6430    0.2200 C   0  0  0  0  0  0  0  0  0  0  0  0
   -5.3920    4.3310    1.4080 C   0  0  0  0  0  0  0  0  0  0  0  0
   -4.5130    3.9430    2.3160 O   0  0  0  0  0  0  0  0  0  0  0  0
   -3.7040    3.0660    1.8020 C   0  0  0  0  0  0  0  0  0  0  0  0
   -4.0510    2.8460    0.4710 C   0  0  0  0  0  0  0  0  0  0  0  0
   -3.4670    2.0240   -0.5840 C   0  0  0  0  0  0  0  0  0  0  0  0
   -2.5640    1.2480   -0.4710 N   0  0  0  0  0  0  0  0  0  0  0  0
   -1.3740    0.4350    0.2810 S   0  0  1  0  0  0  0  0  0  0  0  0
   -1.5820    0.2460    1.7770 O   0  0  0  0  0  0  0  0  0  0  0  0
   -1.2890   -1.0030   -0.2520 O   0  0  0  0  0  0  0  0  0  0  0  0
    0.2650    1.0910    0.0210 C   0  0  0  0  0  0  0  0  0  0  0  0
    1.3530    0.3040    0.6390 C   0  0  0  0  0  0  0  0  0  0  0  0
    1.3290    0.1220    2.0840 C   0  0  0  0  0  0  0  0  0  0  0  0
    0.6090    0.8740    2.7970 O   0  0  0  0  0  0  0  0  0  0  0  0
    2.1040   -0.8940    2.7430 N   0  0  0  0  0  0  0  0  0  0  0  0
    3.0320   -1.7500    2.0250 C   0  0  0  0  0  0  0  0  0  0  0  0
    4.3750   -1.1350    1.9660 C   0  0  0  0  0  0  0  0  0  0  0  0
    4.5840   -0.0020    2.5440 O   0  0  0  0  0  0  0  0  0  0  0  0
    5.4330   -1.7470    1.3070 N   0  0  0  0  0  0  0  0  0  0  0  0
    5.2850   -3.0060    0.6180 C   0  0  0  0  0  0  0  0  0  0  0  0
    5.7330   -2.8500   -0.8260 C   0  0  0  0  0  0  0  0  0  0  0  0
    5.8640   -1.0860   -1.2920 S   0  0  0  0  0  0  0  0  0  0  0  0
    6.8020   -0.2150    0.0330 C   0  0  0  0  0  0  0  0  0  0  0  0
    6.7630   -1.1180    1.2790 C   0  0  0  0  0  0  0  0  0  0  0  0
    1.9400   -1.1100    4.1680 C   0  0  2  0  0  0  0  0  0  0  0  0
    2.8940   -1.8460    5.0030 C   0  0  0  0  0  0  0  0  0  0  0  0
    1.6090   -2.5600    4.5640 C   0  0  0  0  0  0  0  0  0  0  0  0
  1  2  1  0
  2  3  2  3
  3  4  1  0
  3  5  1  0
  5  6  2  3
  5 10  1  0
  6  7  1  0
  7  8  1  6
  7  9  1  0
 10 11  1  0
 10 18  1  0
 11 12  1  0
 12 13  1  0
 13 14  2  0
 13 17  1  0
 14 15  1  0
 15 16  1  0
 16 17  2  0
 17 18  1  0
 18 19  2  3
 19 20  1  0
 20 21  2  0
 20 22  2  0
 20 23  1  1
 23 24  1  0
 24 25  1  0
 25 26  2  0
 25 27  1  0
 27 28  1  0
 37 27  1  6
 28 29  1  0
 29 30  2  0
 29 31  1  0
 31 32  1  0
 31 36  1  0
 32 33  1  0
 33 34  1  0
 34 35  1  0
 35 36  1  0
 37 38  1  0
 37 39  1  0
 38 39  1  0
M  CHG  1   1   1
M  END
