
     RDKit          3D

 39 42  0  0  0  0  0  0  0  0999 V2000
   -1.9290    1.2890   -3.4630 C   0  0  0  0  0  0  0  0  0  0  0  0
   -1.2240    2.2530   -2.5340 C   0  0  0  0  0  0  0  0  0  0  0  0
   -1.9720    2.3250   -1.3360 O   0  0  0  0  0  0  0  0  0  0  0  0
   -2.1570    1.1600   -0.6070 C   0  0  0  0  0  0  0  0  0  0  0  0
   -1.6540    0.1060   -1.0460 O   0  0  0  0  0  0  0  0  0  0  0  0
   -2.9250    1.1260    0.6640 C   0  0  2  0  0  0  0  0  0  0  0  0
   -2.0900    2.2510    1.8150 S   0  0  0  0  0  0  0  0  0  0  0  0
   -0.4730    1.6600    2.2510 C   0  0  0  0  0  0  0  0  0  0  0  0
    0.7190    1.8990    1.6530 N   0  0  0  0  0  0  0  0  0  0  0  0
    1.6860    1.2800    2.2770 N   0  0  0  0  0  0  0  0  0  0  0  0
    3.0970    1.2730    1.9660 C   0  0  0  0  0  0  0  0  0  0  0  0
    3.4090    0.1430    1.0300 C   0  0  0  0  0  0  0  0  0  0  0  0
    2.4680   -0.5760    0.6820 O   0  0  0  0  0  0  0  0  0  0  0  0
    4.7180   -0.0870    0.5700 N   0  0  0  0  0  0  0  0  0  0  0  0
    5.1550   -1.1010   -0.2940 C   0  0  0  0  0  0  0  0  0  0  0  0
    4.4370   -2.2990   -0.3990 C   0  0  0  0  0  0  0  0  0  0  0  0
    4.9730   -3.3350   -1.1260 C   0  0  0  0  0  0  0  0  0  0  0  0
    4.0560   -4.8140   -1.2390 Cl  0  0  0  0  0  0  0  0  0  0  0  0
    6.1830   -3.2400   -1.7510 C   0  0  0  0  0  0  0  0  0  0  0  0
    6.8750   -4.5610   -2.6790 Cl  0  0  0  0  0  0  0  0  0  0  0  0
    6.8850   -2.0720   -1.6530 C   0  0  0  0  0  0  0  0  0  0  0  0
    6.3670   -0.9910   -0.9210 C   0  0  0  0  0  0  0  0  0  0  0  0
    7.1270    0.2340   -1.0310 C   0  0  0  0  0  0  0  0  0  0  0  0
    6.8530    1.5040   -0.8590 C   0  0  0  0  0  0  0  0  0  0  0  0
    7.9500    2.4420   -1.0760 C   0  0  1  0  0  0  0  0  0  0  0  0
    7.7900    3.5220   -0.2090 F   0  0  0  0  0  0  0  0  0  0  0  0
    9.1630    1.8620   -0.7210 O   0  0  0  0  0  0  0  0  0  0  0  0
    8.9150    0.3020   -1.4660 S   0  0  0  0  0  0  0  0  0  0  0  0
    1.1150    0.6160    3.3120 C   0  0  0  0  0  0  0  0  0  0  0  0
    1.7520   -0.0930    4.1340 O   0  0  0  0  0  0  0  0  0  0  0  0
   -0.1950    0.8600    3.2780 N   0  0  0  0  0  0  0  0  0  0  0  0
   -2.8590   -0.2590    1.2430 C   0  0  0  0  0  0  0  0  0  0  0  0
   -3.6630   -1.2750    0.4620 C   0  0  0  0  0  0  0  0  0  0  0  0
   -5.0290   -0.7700    0.1330 C   0  0  1  0  0  0  0  0  0  0  0  0
   -6.0640   -1.7710    0.2630 N   0  0  1  0  0  0  0  0  0  0  0  0
   -6.5160   -1.9420    1.6240 C   0  0  0  0  0  0  0  0  0  0  0  0
   -7.1360   -1.4190   -0.6410 C   0  0  0  0  0  0  0  0  0  0  0  0
   -5.3340    0.4820    0.9060 C   0  0  0  0  0  0  0  0  0  0  0  0
   -4.3450    1.5490    0.4570 C   0  0  0  0  0  0  0  0  0  0  0  0
  1  2  1  0
  2  3  1  0
  3  4  1  0
  4  5  2  0
  4  6  1  0
  6  7  1  1
  6 32  1  0
  6 39  1  0
  7  8  1  0
  8  9  2  0
  8 31  1  0
  9 10  1  0
 10 11  1  0
 10 29  1  0
 11 12  1  0
 12 13  2  0
 12 14  1  0
 14 15  1  0
 15 16  2  0
 15 22  1  0
 16 17  1  0
 17 18  1  0
 17 19  2  0
 19 20  1  0
 19 21  1  0
 21 22  2  0
 22 23  1  0
 23 24  2  0
 23 28  1  0
 24 25  1  0
 25 26  1  1
 25 27  1  0
 27 28  1  0
 29 30  2  0
 29 31  1  0
 32 33  1  0
 34 33  1  1
 34 35  1  0
 34 38  1  0
 35 36  1  1
 35 37  1  0
 38 39  1  0
M  CHG  1  35   1
M  END
