
     RDKit          3D

 39 41  0  0  0  0  0  0  0  0999 V2000
    2.6510   -4.3950   -0.8310 C   0  0  0  0  0  0  0  0  0  0  0  0
    2.4580   -3.1720    0.0720 C   0  0  2  0  0  0  0  0  0  0  0  0
    1.0450   -3.3270    0.6580 C   0  0  0  0  0  0  0  0  0  0  0  0
    2.4300   -1.9360   -0.7190 C   0  0  0  0  0  0  0  0  0  0  0  0
    3.2090   -0.8610   -0.4870 C   0  0  0  0  0  0  0  0  0  0  0  0
    4.1700   -0.8010    0.5790 C   0  0  0  0  0  0  0  0  0  0  0  0
    4.9410    0.2250    0.8340 C   0  0  0  0  0  0  0  0  0  0  0  0
    6.0820    0.0450    2.2520 S   0  0  0  0  0  0  0  0  0  0  0  0
    7.0780    1.4930    2.3170 C   0  0  0  0  0  0  0  0  0  0  0  0
    8.0540    1.5560    3.2740 C   0  0  0  0  0  0  0  0  0  0  0  0
    8.8770    2.6430    3.4300 C   0  0  0  0  0  0  0  0  0  0  0  0
   10.1200    2.6760    4.6770 Cl  0  0  0  0  0  0  0  0  0  0  0  0
    8.6810    3.6930    2.5680 C   0  0  0  0  0  0  0  0  0  0  0  0
    9.7010    5.0960    2.7290 Cl  0  0  0  0  0  0  0  0  0  0  0  0
    7.7050    3.6360    1.6060 C   0  0  0  0  0  0  0  0  0  0  0  0
    6.8670    2.5250    1.4500 C   0  0  0  0  0  0  0  0  0  0  0  0
    5.8920    2.5080    0.4310 N   0  0  0  0  0  0  0  0  0  0  0  0
    4.9980    1.4780    0.1220 C   0  0  0  0  0  0  0  0  0  0  0  0
    4.1710    1.6420   -0.8500 O   0  0  0  0  0  0  0  0  0  0  0  0
    1.5030   -1.8590   -1.8370 C   0  0  0  0  0  0  0  0  0  0  0  0
    1.4100   -0.8390   -2.5720 O   0  0  0  0  0  0  0  0  0  0  0  0
    0.6810   -2.9290   -2.1270 O   0  0  0  0  0  0  0  0  0  0  0  0
   -0.2150   -2.8510   -3.2100 C   0  0  0  0  0  0  0  0  0  0  0  0
   -1.1850   -1.7320   -3.0420 C   0  0  0  0  0  0  0  0  0  0  0  0
   -2.0420   -1.5330   -3.9390 O   0  0  0  0  0  0  0  0  0  0  0  0
   -1.1960   -0.8990   -1.9530 O   0  0  0  0  0  0  0  0  0  0  0  0
   -2.0700    0.1690   -1.7240 C   0  0  2  0  0  0  0  0  0  0  0  0
   -1.3940    1.5040   -1.6260 C   0  0  0  0  0  0  0  0  0  0  0  0
   -2.9850   -0.0930   -0.5750 C   0  0  0  0  0  0  0  0  0  0  0  0
   -2.8960   -1.1770    0.0210 O   0  0  0  0  0  0  0  0  0  0  0  0
   -3.9480    0.8370   -0.1350 N   0  0  0  0  0  0  0  0  0  0  0  0
   -4.8260    0.5530    0.9860 C   0  0  1  0  0  0  0  0  0  0  0  0
   -4.6200    1.5450    2.1130 C   0  0  0  0  0  0  0  0  0  0  0  0
   -6.2380    0.6010    0.4750 C   0  0  1  0  0  0  0  0  0  0  0  0
   -7.2640    0.1760    1.4750 C   0  0  0  0  0  0  0  0  0  0  0  0
   -8.5180    0.6140    1.0150 O   0  0  0  0  0  0  0  0  0  0  0  0
   -8.5280    0.6080   -0.3940 C   0  0  0  0  0  0  0  0  0  0  0  0
   -7.5990    1.6470   -0.9670 C   0  0  0  0  0  0  0  0  0  0  0  0
   -6.5660    1.8480   -0.0540 O   0  0  0  0  0  0  0  0  0  0  0  0
  2  1  1  6
  2  3  1  0
  2  4  1  0
  4  5  2  3
  4 20  1  0
  5  6  1  0
  6  7  2  3
  7  8  1  0
  7 18  1  0
  8  9  1  0
  9 10  2  0
  9 16  1  0
 10 11  1  0
 11 12  1  0
 11 13  2  0
 13 14  1  0
 13 15  1  0
 15 16  2  0
 16 17  1  0
 17 18  1  0
 18 19  2  0
 20 21  2  0
 20 22  1  0
 22 23  1  0
 23 24  1  0
 24 25  2  0
 24 26  1  0
 26 27  1  0
 27 28  1  1
 27 29  1  0
 29 30  2  0
 29 31  1  0
 31 32  1  0
 32 33  1  1
 32 34  1  0
 34 35  1  1
 34 39  1  0
 35 36  1  0
 36 37  1  0
 37 38  1  0
 38 39  1  0
M  END
