
     RDKit          3D

 39 42  0  0  0  0  0  0  0  0999 V2000
  -10.4900   -1.3840    0.4120 C   0  0  0  0  0  0  0  0  0  0  0  0
   -9.1810   -0.6740    0.4730 C   0  0  0  0  0  0  0  0  0  0  0  0
   -8.8690    0.3100   -0.4420 C   0  0  0  0  0  0  0  0  0  0  0  0
   -7.6560    0.9690   -0.3870 C   0  0  0  0  0  0  0  0  0  0  0  0
   -6.7050    0.6840    0.5690 C   0  0  0  0  0  0  0  0  0  0  0  0
   -5.4310    1.3970    0.6030 C   0  0  0  0  0  0  0  0  0  0  0  0
   -5.2190    2.2820   -0.2650 O   0  0  0  0  0  0  0  0  0  0  0  0
   -4.4480    1.1640    1.5230 O   0  0  0  0  0  0  0  0  0  0  0  0
   -3.2120    1.8390    1.5740 C   0  0  0  0  0  0  0  0  0  0  0  0
   -2.4220    1.6620    0.3250 C   0  0  0  0  0  0  0  0  0  0  0  0
   -2.0790    2.7170   -0.3950 C   0  0  0  0  0  0  0  0  0  0  0  0
   -2.5670    4.3130    0.1430 Cl  0  0  0  0  0  0  0  0  0  0  0  0
   -1.3010    2.6220   -1.6350 C   0  0  0  0  0  0  0  0  0  0  0  0
   -0.9800    3.6330   -2.3140 O   0  0  0  0  0  0  0  0  0  0  0  0
   -0.9030    1.2940   -2.0700 C   0  0  0  0  0  0  0  0  0  0  0  0
   -0.2360    1.0960   -3.1170 O   0  0  0  0  0  0  0  0  0  0  0  0
   -1.2980    0.1550   -1.2530 C   0  0  0  0  0  0  0  0  0  0  0  0
   -0.9190   -1.1150   -1.6640 O   0  0  0  0  0  0  0  0  0  0  0  0
    0.1500   -1.8380   -1.1320 C   0  0  0  0  0  0  0  0  0  0  0  0
    1.4730   -1.0850   -1.3180 C   0  0  1  0  0  0  0  0  0  0  0  0
    1.4350    0.1500   -0.6830 O   0  0  0  0  0  0  0  0  0  0  0  0
    2.6080   -1.9230   -0.7240 C   0  0  0  0  0  0  0  0  0  0  0  0
    3.8790   -1.2630   -0.9060 N   0  0  0  0  0  0  0  0  0  0  0  0
    4.7860   -1.3900   -2.0150 C   0  0  0  0  0  0  0  0  0  0  0  0
    4.5700   -2.1300   -3.0110 O   0  0  0  0  0  0  0  0  0  0  0  0
    5.9100   -0.5580   -1.7680 N   0  0  0  0  0  0  0  0  0  0  0  0
    5.8410   -0.0140   -0.4310 C   0  0  2  0  0  0  0  0  0  0  0  0
    6.0470    1.4840   -0.4320 C   0  0  0  0  0  0  0  0  0  0  0  0
    6.7530    1.7950    0.8540 C   0  0  0  0  0  0  0  0  0  0  0  0
    7.4430    0.5290    1.2940 C   0  0  0  0  0  0  0  0  0  0  0  0
    6.9080   -0.5840    0.4480 C   0  0  1  0  0  0  0  0  0  0  0  0
    6.3240   -1.6530    1.3350 C   0  0  0  0  0  0  0  0  0  0  0  0
    7.6050   -2.3700    2.4220 S   0  0  0  0  0  0  0  0  0  0  0  0
    4.4610   -0.3510    0.0120 C   0  0  0  0  0  0  0  0  0  0  0  0
    3.9030    0.1030    1.0360 O   0  0  0  0  0  0  0  0  0  0  0  0
   -2.0100    0.3480   -0.1320 C   0  0  0  0  0  0  0  0  0  0  0  0
   -7.0160   -0.3000    1.4850 C   0  0  0  0  0  0  0  0  0  0  0  0
   -8.2330   -0.9640    1.4330 C   0  0  0  0  0  0  0  0  0  0  0  0
   -8.6230   -2.2180    2.6050 Cl  0  0  0  0  0  0  0  0  0  0  0  0
  1  2  1  0
  2  3  2  0
  2 38  1  0
  3  4  1  0
  4  5  2  0
  5  6  1  0
  5 37  1  0
  6  7  2  0
  6  8  1  0
  8  9  1  0
  9 10  1  0
 10 11  2  0
 10 36  1  0
 11 12  1  0
 11 13  1  0
 13 14  2  0
 13 15  1  0
 15 16  2  0
 15 17  1  0
 17 18  1  0
 17 36  2  0
 18 19  1  0
 19 20  1  0
 20 21  1  1
 20 22  1  0
 22 23  1  0
 23 24  1  0
 23 34  1  0
 24 25  2  0
 24 26  1  0
 26 27  1  0
 27 28  1  6
 27 31  1  0
 27 34  1  0
 28 29  1  0
 29 30  1  0
 30 31  1  0
 31 32  1  1
 32 33  1  0
 34 35  2  0
 37 38  2  0
 38 39  1  0
M  END
