
     RDKit          3D

 38 41  0  0  0  0  0  0  0  0999 V2000
    6.1020   -4.6440    0.0300 C   0  0  0  0  0  0  0  0  0  0  0  0
    5.6600   -3.3210   -0.0370 O   0  0  0  0  0  0  0  0  0  0  0  0
    4.5060   -2.9630   -0.7570 C   0  0  0  0  0  0  0  0  0  0  0  0
    3.8450   -3.9190   -1.3740 N   0  0  0  0  0  0  0  0  0  0  0  0
    2.7400   -3.6480   -2.0750 C   0  0  0  0  0  0  0  0  0  0  0  0
    2.3100   -2.3360   -2.1390 C   0  0  0  0  0  0  0  0  0  0  0  0
    3.0140   -1.3120   -1.4840 C   0  0  0  0  0  0  0  0  0  0  0  0
    2.4610    0.0080   -1.6900 C   0  0  0  0  0  0  0  0  0  0  0  0
    1.2240    0.3360   -1.4900 C   0  0  0  0  0  0  0  0  0  0  0  0
   -0.0970   -0.7050   -0.9250 S   0  0  0  0  0  0  0  0  0  0  0  0
   -1.3500    0.5980   -0.9670 C   0  0  0  0  0  0  0  0  0  0  0  0
   -2.7300    0.3780   -0.5960 N   0  0  0  0  0  0  0  0  0  0  0  0
   -2.9530   -0.5380    0.4960 C   0  0  0  0  0  0  0  0  0  0  0  0
   -4.3600   -0.3840    0.9610 C   0  0  0  0  0  0  0  0  0  0  0  0
   -5.3440   -0.5130   -0.1650 C   0  0  1  0  0  0  0  0  0  0  0  0
   -6.7020   -0.4310    0.3350 N   0  0  1  0  0  0  0  0  0  0  0  0
   -7.0830   -1.6620    1.0340 C   0  0  0  0  0  0  0  0  0  0  0  0
   -6.9850    0.8810    1.3740 S   0  0  1  0  0  0  0  0  0  0  0  0
   -8.4710    1.2100    1.2970 O   0  0  0  0  0  0  0  0  0  0  0  0
   -6.6980    0.5570    2.8010 O   0  0  0  0  0  0  0  0  0  0  0  0
   -6.1710    2.2720    0.9290 O   0  0  0  0  0  0  0  0  0  0  0  0
   -7.0260    3.3450    0.7030 C   0  0  0  0  0  0  0  0  0  0  0  0
   -5.0920    0.4180   -1.3080 C   0  0  0  0  0  0  0  0  0  0  0  0
   -3.7470    1.0610   -1.3140 C   0  0  0  0  0  0  0  0  0  0  0  0
   -0.7630    1.6240   -1.3600 N   0  0  0  0  0  0  0  0  0  0  0  0
    0.5800    1.6140   -1.6650 C   0  0  0  0  0  0  0  0  0  0  0  0
    1.2320    2.6450   -2.0730 O   0  0  0  0  0  0  0  0  0  0  0  0
    4.1070   -1.6010   -0.7880 C   0  0  0  0  0  0  0  0  0  0  0  0
    4.9580   -0.7080   -0.0430 C   0  0  0  0  0  0  0  0  0  0  0  0
    4.6620    0.6590    0.1240 N   0  0  0  0  0  0  0  0  0  0  0  0
    5.7150    1.4970    0.6670 C   0  0  0  0  0  0  0  0  0  0  0  0
    6.9220    0.9770    1.0590 C   0  0  0  0  0  0  0  0  0  0  0  0
    7.9300    1.7710    1.5730 C   0  0  0  0  0  0  0  0  0  0  0  0
    7.7080    3.1200    1.6920 C   0  0  0  0  0  0  0  0  0  0  0  0
    8.9430    4.1520    2.3310 Cl  0  0  0  0  0  0  0  0  0  0  0  0
    6.4840    3.6580    1.2970 C   0  0  0  0  0  0  0  0  0  0  0  0
    6.2210    5.3660    1.4540 Cl  0  0  0  0  0  0  0  0  0  0  0  0
    5.4940    2.8560    0.7880 C   0  0  0  0  0  0  0  0  0  0  0  0
  1  2  1  0
  2  3  1  0
  3  4  2  0
  3 28  1  0
  4  5  1  0
  5  6  2  0
  6  7  1  0
  7  8  1  0
  7 28  2  0
  8  9  2  3
  9 10  1  0
  9 26  1  0
 10 11  1  0
 11 12  1  0
 11 25  2  0
 12 13  1  0
 12 24  1  0
 13 14  1  0
 15 14  1  1
 15 16  1  0
 15 23  1  0
 16 17  1  1
 16 18  1  0
 18 19  2  0
 18 20  2  0
 18 21  1  6
 21 22  1  0
 23 24  1  0
 25 26  1  0
 26 27  2  0
 28 29  1  0
 29 30  1  0
 30 31  1  0
 31 32  2  0
 31 38  1  0
 32 33  1  0
 33 34  2  0
 34 35  1  0
 34 36  1  0
 36 37  1  0
 36 38  2  0
M  CHG  1  16   1
M  END
