
     RDKit          3D

 39 43  0  0  0  0  0  0  0  0999 V2000
   -5.0430   -2.5140   -2.2760 C   0  0  0  0  0  0  0  0  0  0  0  0
   -5.1260   -1.2120   -2.2360 C   0  0  0  0  0  0  0  0  0  0  0  0
   -4.9830   -0.4300   -3.4080 O   0  0  0  0  0  0  0  0  0  0  0  0
   -4.5680    0.9120   -3.1920 C   0  0  0  0  0  0  0  0  0  0  0  0
   -3.6960    1.0680   -1.9670 C   0  0  0  0  0  0  0  0  0  0  0  0
   -4.4070    0.6480   -0.7060 C   0  0  1  0  0  0  0  0  0  0  0  0
   -5.2500    2.0380    0.0240 S   0  0  0  0  0  0  0  0  0  0  0  0
   -4.0640    3.2620    0.6030 C   0  0  0  0  0  0  0  0  0  0  0  0
   -3.3030    2.7080    1.7140 N   0  0  0  0  0  0  0  0  0  0  0  0
   -3.8020    2.8230    2.9720 C   0  0  0  0  0  0  0  0  0  0  0  0
   -4.9250    3.4030    3.0850 O   0  0  0  0  0  0  0  0  0  0  0  0
   -3.1500    2.3530    4.0440 N   0  0  0  0  0  0  0  0  0  0  0  0
   -1.9720    1.7540    3.8450 C   0  0  0  0  0  0  0  0  0  0  0  0
   -1.0390    1.1630    4.6690 C   0  0  0  0  0  0  0  0  0  0  0  0
   -0.0400    0.7180    3.9670 O   0  0  0  0  0  0  0  0  0  0  0  0
   -0.2220    0.9670    2.6750 C   0  0  0  0  0  0  0  0  0  0  0  0
    0.7280    0.5860    1.6460 C   0  0  0  0  0  0  0  0  0  0  0  0
    0.5900    0.8100    0.4200 O   0  0  0  0  0  0  0  0  0  0  0  0
    1.9500   -0.1060    1.9890 N   0  0  0  0  0  0  0  0  0  0  0  0
    2.9370   -0.5160    1.0420 C   0  0  1  0  0  0  0  0  0  0  0  0
    4.2150    0.2230    1.3440 C   0  0  0  0  0  0  0  0  0  0  0  0
    5.2370    0.0490    0.3350 N   0  0  0  0  0  0  0  0  0  0  0  0
    5.5920   -1.1330    0.0110 C   0  0  0  0  0  0  0  0  0  0  0  0
    6.5810   -1.3420   -0.9650 N   0  0  0  0  0  0  0  0  0  0  0  0
    6.5230   -2.3020   -2.0490 C   0  0  0  0  0  0  0  0  0  0  0  0
    7.4700   -1.7020   -3.0630 C   0  0  0  0  0  0  0  0  0  0  0  0
    8.6140   -1.2270   -2.1670 C   0  0  0  0  0  0  0  0  0  0  0  0
    7.8300   -0.6060   -1.0230 C   0  0  0  0  0  0  0  0  0  0  0  0
    4.8220   -2.5180    0.8060 S   0  0  0  0  0  0  0  0  0  0  0  0
    3.0930   -2.0210    1.1470 C   0  0  0  0  0  0  0  0  0  0  0  0
   -1.4210    1.6140    2.5640 C   0  0  0  0  0  0  0  0  0  0  0  0
   -2.1200    2.1090    1.4980 C   0  0  0  0  0  0  0  0  0  0  0  0
   -1.6460    1.9980    0.3380 O   0  0  0  0  0  0  0  0  0  0  0  0
   -5.3670   -0.4850   -1.0070 C   0  0  0  0  0  0  0  0  0  0  0  0
   -6.3580   -0.7560   -0.2160 C   0  0  0  0  0  0  0  0  0  0  0  0
   -7.3690   -1.7850   -0.4070 C   0  0  1  0  0  0  0  0  0  0  0  0
   -7.0980   -2.9950    0.2120 F   0  0  0  0  0  0  0  0  0  0  0  0
   -8.8760   -1.1500    0.4090 Cl  0  0  0  0  0  0  0  0  0  0  0  0
   -7.8560   -2.0810   -2.0740 Cl  0  0  0  0  0  0  0  0  0  0  0  0
  1  2  2  0
  2  3  1  0
  2 34  1  0
  3  4  1  0
  4  5  1  0
  5  6  1  0
  6  7  1  6
  6 34  1  0
  7  8  1  0
  8  9  1  0
  9 10  1  0
  9 32  1  0
 10 11  2  0
 10 12  1  0
 12 13  1  0
 13 14  2  0
 13 31  1  0
 14 15  1  0
 15 16  1  0
 16 17  1  0
 16 31  2  0
 17 18  2  0
 17 19  1  0
 20 19  1  1
 20 21  1  0
 20 30  1  0
 21 22  1  0
 22 23  2  0
 23 24  1  0
 23 29  1  0
 24 25  1  0
 24 28  1  0
 25 26  1  0
 26 27  1  0
 27 28  1  0
 29 30  1  0
 31 32  1  0
 32 33  2  0
 34 35  2  3
 35 36  1  0
 36 37  1  1
 36 38  1  0
 36 39  1  0
M  CHG  1  22   1
M  END
