
     RDKit          3D

 38 41  0  0  0  0  0  0  0  0999 V2000
   -7.6000   -1.8900    1.9630 O   0  0  0  0  0  0  0  0  0  0  0  0
   -6.5180   -2.4070    1.6200 C   0  0  0  0  0  0  0  0  0  0  0  0
   -5.3230   -1.6150    1.5260 C   0  0  0  0  0  0  0  0  0  0  0  0
   -4.1460   -2.0770    1.1730 C   0  0  0  0  0  0  0  0  0  0  0  0
   -2.9590   -1.1140    1.1170 C   0  0  0  0  0  0  0  0  0  0  0  0
   -2.4320   -1.0910   -0.2170 N   0  0  1  0  0  0  0  0  0  0  0  0
   -3.3820   -0.6450   -1.2010 C   0  0  0  0  0  0  0  0  0  0  0  0
   -3.6760    0.7620   -1.2310 C   0  0  0  0  0  0  0  0  0  0  0  0
   -3.1410    1.7620   -2.0210 C   0  0  0  0  0  0  0  0  0  0  0  0
   -3.5940    3.0130   -1.8500 C   0  0  0  0  0  0  0  0  0  0  0  0
   -4.5370    3.2930   -0.9440 C   0  0  0  0  0  0  0  0  0  0  0  0
   -5.2210    4.5210   -0.5300 C   0  0  0  0  0  0  0  0  0  0  0  0
   -4.3990    5.3750    0.7800 Cl  0  0  0  0  0  0  0  0  0  0  0  0
   -4.8480    1.6510   -0.2330 S   0  0  0  0  0  0  0  0  0  0  0  0
   -1.1740   -0.4400   -0.2960 C   0  0  0  0  0  0  0  0  0  0  0  0
   -0.5180   -0.3340   -1.5040 C   0  0  0  0  0  0  0  0  0  0  0  0
    0.7020    0.2860   -1.6410 C   0  0  0  0  0  0  0  0  0  0  0  0
    1.3340    0.3800   -2.8380 F   0  0  0  0  0  0  0  0  0  0  0  0
    1.3200    0.8360   -0.5390 C   0  0  0  0  0  0  0  0  0  0  0  0
    2.5690    1.4790   -0.6410 N   0  0  0  0  0  0  0  0  0  0  0  0
    3.7600    0.7100   -0.4710 C   0  0  0  0  0  0  0  0  0  0  0  0
    3.6260   -0.5160   -0.2370 O   0  0  0  0  0  0  0  0  0  0  0  0
    5.0780    1.2890   -0.5600 C   0  0  0  0  0  0  0  0  0  0  0  0
    5.1110    2.5500   -0.7830 O   0  0  0  0  0  0  0  0  0  0  0  0
    6.2900    0.6030   -0.4250 N   0  0  0  0  0  0  0  0  0  0  0  0
    6.3950   -0.8300   -0.1980 C   0  0  0  0  0  0  0  0  0  0  0  0
    6.4350   -1.0720    1.3150 C   0  0  0  0  0  0  0  0  0  0  0  0
    7.4050    0.3210    1.9730 S   0  0  0  0  0  0  0  0  0  0  0  0
    8.2660   -0.2480    3.0880 O   0  0  0  0  0  0  0  0  0  0  0  0
    8.4530    0.9260    0.6280 C   0  0  0  0  0  0  0  0  0  0  0  0
    7.5460    1.3860   -0.4970 C   0  0  0  0  0  0  0  0  0  0  0  0
    0.6690    0.7360    0.6810 C   0  0  0  0  0  0  0  0  0  0  0  0
    1.4850    1.4500    2.0690 Cl  0  0  0  0  0  0  0  0  0  0  0  0
   -0.5570    0.1110    0.8090 C   0  0  0  0  0  0  0  0  0  0  0  0
   -3.9440   -3.4850    0.8330 C   0  0  0  0  0  0  0  0  0  0  0  0
   -5.1500   -4.3040    0.9280 C   0  0  0  0  0  0  0  0  0  0  0  0
   -5.0860   -5.5680    0.6550 O   0  0  0  0  0  0  0  0  0  0  0  0
   -6.4070   -3.7860    1.3090 N   0  0  0  0  0  0  0  0  0  0  0  0
  1  2  2  0
  2  3  1  0
  2 38  1  0
  3  4  2  0
  4  5  1  0
  4 35  1  0
  6  5  1  1
  6  7  1  0
  6 15  1  0
  7  8  1  0
  8  9  2  0
  8 14  1  0
  9 10  1  0
 10 11  2  0
 11 12  1  0
 11 14  1  0
 12 13  1  0
 15 16  2  0
 15 34  1  0
 16 17  1  0
 17 18  1  0
 17 19  2  0
 19 20  1  0
 19 32  1  0
 20 21  1  0
 21 22  2  0
 21 23  1  0
 23 24  2  0
 23 25  1  0
 25 26  1  0
 25 31  1  0
 26 27  1  0
 28 27  1  6
 28 29  2  0
 28 30  1  0
 30 31  1  0
 32 33  1  0
 32 34  2  0
 35 36  1  0
 36 37  2  0
 36 38  1  0
M  CHG  1   6   1
M  END
