
     RDKit          3D

 40 41  0  0  0  0  0  0  0  0999 V2000
   -5.0900   -5.0900    0.8130 C   0  0  0  0  0  0  0  0  0  0  0  0
   -5.7750   -4.4670    2.3750 S   0  0  0  0  0  0  0  0  0  0  0  0
   -6.2720   -2.7510    2.1150 C   0  0  0  0  0  0  0  0  0  0  0  0
   -5.0400   -1.9040    1.8550 C   0  0  0  0  0  0  0  0  0  0  0  0
   -4.9310   -1.2550    0.7280 C   0  0  0  0  0  0  0  0  0  0  0  0
   -3.8310   -0.4300    0.3680 C   0  0  0  0  0  0  0  0  0  0  0  0
   -3.8500    0.1880   -0.8460 C   0  0  0  0  0  0  0  0  0  0  0  0
   -2.7540    1.0270   -1.2420 C   0  0  0  0  0  0  0  0  0  0  0  0
   -2.5560    1.7110   -2.3420 C   0  0  0  0  0  0  0  0  0  0  0  0
   -3.5110    1.7100   -3.4110 C   0  0  0  0  0  0  0  0  0  0  0  0
   -4.5880    1.0320   -3.3110 O   0  0  0  0  0  0  0  0  0  0  0  0
   -3.4140    2.4090   -4.6520 N   0  0  0  0  0  0  0  0  0  0  0  0
   -4.4400    2.3500   -5.6780 C   0  0  0  0  0  0  0  0  0  0  0  0
   -5.7790    2.8650   -5.2190 C   0  0  0  0  0  0  0  0  0  0  0  0
   -5.6110    4.1940   -4.8380 O   0  0  0  0  0  0  0  0  0  0  0  0
   -1.3240    2.4560   -2.4370 C   0  0  0  0  0  0  0  0  0  0  0  0
   -1.0120    3.1360   -3.4080 O   0  0  0  0  0  0  0  0  0  0  0  0
   -0.3940    2.4290   -1.3780 O   0  0  0  0  0  0  0  0  0  0  0  0
    0.8200    3.1530   -1.4740 C   0  0  0  0  0  0  0  0  0  0  0  0
    1.6620    3.0030   -0.2580 C   0  0  0  0  0  0  0  0  0  0  0  0
    1.9920    1.5690   -0.0190 C   0  0  0  0  0  0  0  0  0  0  0  0
    1.4760    0.7040   -0.7670 O   0  0  0  0  0  0  0  0  0  0  0  0
    2.8550    1.1460    1.0070 N   0  0  0  0  0  0  0  0  0  0  0  0
    3.2100   -0.1390    1.2990 O   0  0  0  0  0  0  0  0  0  0  0  0
    4.3780   -0.3470    2.0140 C   0  0  0  0  0  0  0  0  0  0  0  0
    4.3690   -0.2490    3.4050 C   0  0  0  0  0  0  0  0  0  0  0  0
    5.5390   -0.4520    4.0910 C   0  0  0  0  0  0  0  0  0  0  0  0
    5.5240   -0.3430    5.5920 C   0  0  0  0  0  0  0  0  0  0  0  0
    6.6850   -0.7450    3.4020 C   0  0  0  0  0  0  0  0  0  0  0  0
    6.6950   -0.8470    1.9910 C   0  0  0  0  0  0  0  0  0  0  0  0
    7.9770   -1.2110    1.3410 C   0  0  0  0  0  0  0  0  0  0  0  0
    5.5400   -0.6470    1.2930 C   0  0  0  0  0  0  0  0  0  0  0  0
    5.4220   -0.8000   -0.1430 C   0  0  0  0  0  0  0  0  0  0  0  0
    6.3530   -0.8140   -1.0730 C   0  0  0  0  0  0  0  0  0  0  0  0
    5.6910   -1.0030   -2.3980 C   0  0  0  0  0  0  0  0  0  0  0  0
    4.4330   -0.7190   -2.1240 C   0  0  0  0  0  0  0  0  0  0  0  0
    4.1400   -1.0570   -0.8710 C   0  0  0  0  0  0  0  0  0  0  0  0
   -4.0610   -1.8880    2.9050 C   0  0  0  0  0  0  0  0  0  0  0  0
   -4.3250   -2.6610    4.0980 N   0  0  0  0  0  0  0  0  0  0  0  0
   -2.9710   -1.2680    2.9160 O   0  0  0  0  0  0  0  0  0  0  0  0
  1  2  1  0
  2  3  1  0
  3  4  1  0
  4  5  2  3
  4 38  1  0
  5  6  1  0
  6  7  2  3
  7  8  1  0
  8  9  2  3
  9 10  1  0
  9 16  1  0
 10 11  2  0
 10 12  1  0
 12 13  1  0
 13 14  1  0
 14 15  1  0
 16 17  2  0
 16 18  1  0
 18 19  1  0
 19 20  1  0
 20 21  1  0
 21 22  2  0
 21 23  1  0
 23 24  1  0
 24 25  1  0
 25 26  2  0
 25 32  1  0
 26 27  1  0
 27 28  1  0
 27 29  2  0
 29 30  1  0
 30 31  1  0
 30 32  2  0
 32 33  1  0
 33 34  2  0
 33 37  1  0
 34 35  1  0
 35 36  2  0
 36 37  2  0
 38 39  1  0
 38 40  2  0
M  END
