
     RDKit          3D

 40 42  0  0  0  0  0  0  0  0999 V2000
   -2.0200   -5.8150    1.2160 C   0  0  0  0  0  0  0  0  0  0  0  0
   -3.5030   -5.9690    0.9740 C   0  0  0  0  0  0  0  0  0  0  0  0
   -4.0730   -4.6620    0.4180 C   0  0  0  0  0  0  0  0  0  0  0  0
   -3.8360   -3.6510    1.3670 O   0  0  0  0  0  0  0  0  0  0  0  0
   -4.2530   -2.3310    1.1360 C   0  0  0  0  0  0  0  0  0  0  0  0
   -5.4950   -1.9030    1.5190 C   0  0  0  0  0  0  0  0  0  0  0  0
   -6.3550   -2.8400    2.1610 N   0  0  0  0  0  0  0  0  0  0  0  0
   -5.8390   -0.6100    1.2670 C   0  0  0  0  0  0  0  0  0  0  0  0
   -4.9990    0.2860    0.6460 C   0  0  0  0  0  0  0  0  0  0  0  0
   -5.3350    1.6720    0.3570 C   0  0  0  0  0  0  0  0  0  0  0  0
   -4.9160    2.6280    1.0840 O   0  0  0  0  0  0  0  0  0  0  0  0
   -6.1490    2.0580   -0.7520 N   0  0  0  0  0  0  0  0  0  0  0  0
   -6.4870    3.4220   -1.0420 C   0  0  1  0  0  0  0  0  0  0  0  0
   -5.9300    3.9310   -2.3520 C   0  0  0  0  0  0  0  0  0  0  0  0
   -7.9820    3.6810   -0.9840 C   0  0  0  0  0  0  0  0  0  0  0  0
   -8.2460    5.0050   -1.2720 O   0  0  0  0  0  0  0  0  0  0  0  0
   -3.7380   -0.1960    0.2720 C   0  0  0  0  0  0  0  0  0  0  0  0
   -3.3250   -1.4950    0.4970 C   0  0  0  0  0  0  0  0  0  0  0  0
   -2.0710   -2.0270    0.1510 N   0  0  0  0  0  0  0  0  0  0  0  0
   -1.0490   -1.3450   -0.5280 C   0  0  0  0  0  0  0  0  0  0  0  0
   -1.1840   -0.1800   -0.8880 O   0  0  0  0  0  0  0  0  0  0  0  0
    0.2620   -2.0120   -0.8460 C   0  0  0  0  0  0  0  0  0  0  0  0
    1.3060   -0.8520   -1.7170 S   0  0  0  0  0  0  0  0  0  0  0  0
    1.7230    0.5060   -0.5930 C   0  0  0  0  0  0  0  0  0  0  0  0
    2.5840    0.0440    0.5510 C   0  0  1  0  0  0  0  0  0  0  0  0
    3.9060   -0.5500    0.0980 C   0  0  0  0  0  0  0  0  0  0  0  0
    4.8540    0.1120    1.1270 C   0  0  0  0  0  0  0  0  0  0  0  0
    4.3280    1.4820    1.0820 C   0  0  0  0  0  0  0  0  0  0  0  0
    4.7500    2.6860    0.8970 C   0  0  0  0  0  0  0  0  0  0  0  0
    5.9890    3.2770    0.6250 C   0  0  0  0  0  0  0  0  0  0  0  0
    5.9930    4.6090    0.6550 O   0  0  0  0  0  0  0  0  0  0  0  0
    7.2900    2.7340    0.3120 C   0  0  0  0  0  0  0  0  0  0  0  0
    8.4260    3.4920    0.6610 C   0  0  0  0  0  0  0  0  0  0  0  0
    9.6920    3.1330    0.3230 C   0  0  0  0  0  0  0  0  0  0  0  0
    9.8790    1.9740   -0.3930 C   0  0  0  0  0  0  0  0  0  0  0  0
    8.7880    1.2030   -0.7560 C   0  0  0  0  0  0  0  0  0  0  0  0
    8.9920   -0.0550   -1.5310 C   0  0  0  0  0  0  0  0  0  0  0  0
    9.0890   -1.1540   -0.6670 O   0  0  0  0  0  0  0  0  0  0  0  0
    7.5280    1.6060   -0.3940 C   0  0  0  0  0  0  0  0  0  0  0  0
    2.9120    1.1970    1.3360 O   0  0  0  0  0  0  0  0  0  0  0  0
  1  2  1  0
  2  3  1  0
  3  4  1  0
  4  5  1  0
  5  6  2  0
  5 18  1  0
  6  7  1  0
  6  8  1  0
  8  9  2  0
  9 10  1  0
  9 17  1  0
 10 11  2  0
 10 12  1  0
 12 13  1  0
 13 14  1  6
 13 15  1  0
 15 16  1  0
 17 18  2  0
 18 19  1  0
 19 20  1  0
 20 21  2  0
 20 22  1  0
 22 23  1  0
 23 24  1  0
 25 24  1  6
 25 26  1  0
 25 40  1  0
 26 27  1  0
 27 28  1  0
 28 29  2  3
 28 40  1  0
 29 30  1  0
 30 31  2  0
 30 32  1  0
 32 33  2  0
 32 39  1  0
 33 34  1  0
 34 35  2  0
 35 36  1  0
 36 37  1  0
 36 39  2  0
 37 38  1  0
M  END
