
     RDKit          3D

 40 42  0  0  0  0  0  0  0  0999 V2000
    3.1980    3.7300    0.3770 C   0  0  0  0  0  0  0  0  0  0  0  0
    3.8590    2.4490    0.6160 N   0  0  0  0  0  0  0  0  0  0  0  0
    3.5630    1.6510    1.7500 C   0  0  0  0  0  0  0  0  0  0  0  0
    2.7170    2.0480    2.5670 O   0  0  0  0  0  0  0  0  0  0  0  0
    4.2490    0.3640    1.9630 C   0  0  0  0  0  0  0  0  0  0  0  0
    5.1350    0.1570    0.9030 O   0  0  0  0  0  0  0  0  0  0  0  0
    5.7820   -1.0500    1.0910 C   0  0  0  0  0  0  0  0  0  0  0  0
    6.7450   -1.2890   -0.0410 C   0  0  1  0  0  0  0  0  0  0  0  0
    7.4070   -2.5150    0.1610 O   0  0  0  0  0  0  0  0  0  0  0  0
    5.9380   -1.3510   -1.3380 C   0  0  0  0  0  0  0  0  0  0  0  0
    5.0000   -2.3240   -1.3170 O   0  0  0  0  0  0  0  0  0  0  0  0
    4.2580   -2.5650   -2.4180 C   0  0  0  0  0  0  0  0  0  0  0  0
    3.3650   -1.5360   -2.9820 C   0  0  2  0  0  0  0  0  0  0  0  0
    2.7730   -2.0730   -4.3410 C   0  0  0  0  0  0  0  0  0  0  0  0
    4.0580   -0.3540   -3.3760 N   0  0  0  0  0  0  0  0  0  0  0  0
    3.6260    0.9770   -3.0910 C   0  0  0  0  0  0  0  0  0  0  0  0
    2.5200    1.1300   -2.3650 C   0  0  0  0  0  0  0  0  0  0  0  0
    1.7930   -0.0440   -1.9000 C   0  0  0  0  0  0  0  0  0  0  0  0
    2.1690   -1.2760   -2.1700 C   0  0  0  0  0  0  0  0  0  0  0  0
    1.2130   -2.6280   -1.5280 S   0  0  0  0  0  0  0  0  0  0  0  0
   -0.2480   -2.0640   -0.6820 C   0  0  0  0  0  0  0  0  0  0  0  0
   -1.4690   -1.9340   -1.3510 C   0  0  0  0  0  0  0  0  0  0  0  0
   -2.5890   -1.4830   -0.6930 C   0  0  0  0  0  0  0  0  0  0  0  0
   -2.5300   -1.1500    0.6430 C   0  0  0  0  0  0  0  0  0  0  0  0
   -3.6870   -0.6690    1.3870 C   0  0  0  0  0  0  0  0  0  0  0  0
   -3.5170   -0.3570    2.5900 O   0  0  0  0  0  0  0  0  0  0  0  0
   -4.9520   -0.5290    0.8750 O   0  0  0  0  0  0  0  0  0  0  0  0
   -6.0390   -0.0650    1.5910 C   0  0  0  0  0  0  0  0  0  0  0  0
   -6.7190   -0.8430    2.5000 C   0  0  0  0  0  0  0  0  0  0  0  0
   -7.8120   -0.3350    3.2050 C   0  0  0  0  0  0  0  0  0  0  0  0
   -8.2310    0.9490    3.0040 C   0  0  0  0  0  0  0  0  0  0  0  0
   -9.3210    1.4480    3.7100 O   0  0  0  0  0  0  0  0  0  0  0  0
   -7.5290    1.7320    2.0730 C   0  0  0  0  0  0  0  0  0  0  0  0
   -8.0640    3.1040    1.9280 C   0  0  0  0  0  0  0  0  0  0  0  0
   -7.3350    3.8590    0.9860 N   0  0  0  0  0  0  0  0  0  0  0  0
   -6.4530    1.2410    1.3770 C   0  0  0  0  0  0  0  0  0  0  0  0
   -5.7100    2.0330    0.3990 C   0  0  0  0  0  0  0  0  0  0  0  0
   -1.3130   -1.2890    1.2750 C   0  0  0  0  0  0  0  0  0  0  0  0
   -0.1680   -1.7370    0.6520 C   0  0  0  0  0  0  0  0  0  0  0  0
    1.1220   -1.8570    1.4280 C   0  0  0  0  0  0  0  0  0  0  0  0
  1  2  1  0
  2  3  1  0
  3  4  2  0
  3  5  1  0
  5  6  1  0
  6  7  1  0
  7  8  1  0
  8  9  1  1
  8 10  1  0
 10 11  1  0
 11 12  1  0
 12 13  1  0
 13 14  1  6
 13 15  1  0
 13 19  1  0
 15 16  1  0
 16 17  2  0
 17 18  1  0
 18 19  2  0
 19 20  1  0
 20 21  1  0
 21 22  2  0
 21 39  1  0
 22 23  1  0
 23 24  2  0
 24 25  1  0
 24 38  1  0
 25 26  2  0
 25 27  1  0
 27 28  1  0
 28 29  2  0
 28 36  1  0
 29 30  1  0
 30 31  2  0
 31 32  1  0
 31 33  1  0
 33 34  1  0
 33 36  2  0
 34 35  1  0
 36 37  1  0
 38 39  2  0
 39 40  1  0
M  END
