
     RDKit          3D

 40 42  0  0  0  0  0  0  0  0999 V2000
    8.4540    2.0260   -0.8250 C   0  0  0  0  0  0  0  0  0  0  0  0
    8.4860    0.5910   -1.3790 C   0  0  0  0  0  0  0  0  0  0  0  0
    8.8660    0.3290   -2.6330 C   0  0  0  0  0  0  0  0  0  0  0  0
    8.9250   -0.9810   -3.0430 C   0  0  0  0  0  0  0  0  0  0  0  0
    8.4120   -1.8490   -1.5600 S   0  0  0  0  0  0  0  0  0  0  0  0
    8.1650   -0.4400   -0.5380 C   0  0  0  0  0  0  0  0  0  0  0  0
    7.6840   -0.4960    0.8220 C   0  0  0  0  0  0  0  0  0  0  0  0
    6.2060   -0.4530    0.9640 C   0  0  1  0  0  0  0  0  0  0  0  0
    5.9850   -0.5020    2.3890 O   0  0  0  0  0  0  0  0  0  0  0  0
    5.4680    0.7530    0.5070 C   0  0  1  0  0  0  0  0  0  0  0  0
    5.2950    0.8160   -1.0070 C   0  0  0  0  0  0  0  0  0  0  0  0
    4.1270    0.5430    0.9720 O   0  0  0  0  0  0  0  0  0  0  0  0
    3.7550    1.5400    1.8340 C   0  0  0  0  0  0  0  0  0  0  0  0
    2.3670    1.3790    2.3780 C   0  0  0  0  0  0  0  0  0  0  0  0
    2.1460    0.2350    3.0840 O   0  0  0  0  0  0  0  0  0  0  0  0
    2.3080   -0.9570    2.4530 C   0  0  0  0  0  0  0  0  0  0  0  0
    1.4050   -1.1730    1.2600 C   0  0  0  0  0  0  0  0  0  0  0  0
   -0.0030   -1.1070    1.7490 C   0  0  0  0  0  0  0  0  0  0  0  0
   -0.9910   -1.2990    0.6780 N   0  0  0  0  0  0  0  0  0  0  0  0
   -2.3580   -1.2700    0.9710 C   0  0  0  0  0  0  0  0  0  0  0  0
   -2.6490   -1.0480    2.2080 O   0  0  0  0  0  0  0  0  0  0  0  0
   -3.4530   -1.4530    0.0260 C   0  0  0  0  0  0  0  0  0  0  0  0
   -4.5330   -0.5780    0.1730 C   0  0  0  0  0  0  0  0  0  0  0  0
   -5.6130   -0.5440   -0.7120 C   0  0  0  0  0  0  0  0  0  0  0  0
   -6.6590    0.3810   -0.5170 N   0  0  0  0  0  0  0  0  0  0  0  0
   -7.9480    0.2660   -1.0420 C   0  0  0  0  0  0  0  0  0  0  0  0
   -8.2920   -0.7080   -1.7470 O   0  0  0  0  0  0  0  0  0  0  0  0
   -8.9750    1.3070   -0.7780 C   0  0  0  0  0  0  0  0  0  0  0  0
   -8.6430    2.5970   -0.4740 C   0  0  0  0  0  0  0  0  0  0  0  0
   -9.6320    3.5500   -0.2100 C   0  0  0  0  0  0  0  0  0  0  0  0
  -10.9600    3.2040   -0.2520 C   0  0  0  0  0  0  0  0  0  0  0  0
  -11.2920    1.9040   -0.5580 C   0  0  0  0  0  0  0  0  0  0  0  0
  -12.6460    1.5400   -0.6030 O   0  0  0  0  0  0  0  0  0  0  0  0
  -10.3010    0.9500   -0.8230 C   0  0  0  0  0  0  0  0  0  0  0  0
   -5.5730   -1.4230   -1.7580 C   0  0  0  0  0  0  0  0  0  0  0  0
   -4.5220   -2.3100   -1.9410 C   0  0  0  0  0  0  0  0  0  0  0  0
   -3.4580   -2.3160   -1.0300 C   0  0  0  0  0  0  0  0  0  0  0  0
   -2.4600   -3.3570   -1.2100 C   0  0  0  0  0  0  0  0  0  0  0  0
   -1.6560   -3.7940   -0.1310 N   0  0  0  0  0  0  0  0  0  0  0  0
   -2.2760   -3.9140   -2.3290 O   0  0  0  0  0  0  0  0  0  0  0  0
  1  2  1  0
  2  3  1  0
  2  6  2  0
  3  4  2  0
  4  5  1  0
  5  6  1  0
  6  7  1  0
  7  8  1  0
  8  9  1  1
  8 10  1  0
 10 11  1  6
 10 12  1  0
 12 13  1  0
 13 14  1  0
 14 15  1  0
 15 16  1  0
 16 17  1  0
 17 18  1  0
 18 19  1  0
 19 20  1  0
 20 21  2  0
 20 22  1  0
 22 23  2  0
 22 37  1  0
 23 24  1  0
 24 25  1  0
 24 35  2  0
 25 26  1  0
 26 27  2  0
 26 28  1  0
 28 29  2  0
 28 34  1  0
 29 30  1  0
 30 31  2  0
 31 32  1  0
 32 33  1  0
 32 34  2  0
 35 36  1  0
 36 37  2  0
 37 38  1  0
 38 39  1  0
 38 40  2  0
M  END
