
     RDKit          3D

 40 42  0  0  0  0  0  0  0  0999 V2000
   -4.9090   -3.7680   -3.0740 C   0  0  0  0  0  0  0  0  0  0  0  0
   -6.1010   -2.4130   -2.9240 S   0  0  0  0  0  0  0  0  0  0  0  0
   -6.1020   -1.7220   -1.2540 C   0  0  0  0  0  0  0  0  0  0  0  0
   -4.8150   -1.0470   -0.9390 C   0  0  0  0  0  0  0  0  0  0  0  0
   -3.7870   -1.0040   -1.8690 C   0  0  0  0  0  0  0  0  0  0  0  0
   -2.5740   -0.4140   -1.6630 C   0  0  0  0  0  0  0  0  0  0  0  0
   -2.3230    0.2020   -0.4230 C   0  0  0  0  0  0  0  0  0  0  0  0
   -1.1060    0.7720   -0.2770 O   0  0  0  0  0  0  0  0  0  0  0  0
   -0.4710    1.4300    0.7520 C   0  0  0  0  0  0  0  0  0  0  0  0
   -0.2130    0.5670    1.9600 C   0  0  0  0  0  0  0  0  0  0  0  0
    0.5870   -0.5140    1.6310 O   0  0  0  0  0  0  0  0  0  0  0  0
    1.8590   -0.6370    1.1970 C   0  0  0  0  0  0  0  0  0  0  0  0
    2.7630    0.3710    0.9820 C   0  0  0  0  0  0  0  0  0  0  0  0
    4.0330    0.0910    0.5310 C   0  0  0  0  0  0  0  0  0  0  0  0
    4.4780   -1.1760    0.2730 C   0  0  0  0  0  0  0  0  0  0  0  0
    5.8290   -1.4740   -0.2040 C   0  0  0  0  0  0  0  0  0  0  0  0
    6.1340   -2.6700   -0.4560 O   0  0  0  0  0  0  0  0  0  0  0  0
    6.8170   -0.4810   -0.3960 N   0  0  0  0  0  0  0  0  0  0  0  0
    8.1630   -0.8200   -0.8750 C   0  0  0  0  0  0  0  0  0  0  0  0
    8.9950    0.3760   -0.9890 C   0  0  0  0  0  0  0  0  0  0  0  0
   10.1170    0.5640   -0.3340 C   0  0  0  0  0  0  0  0  0  0  0  0
   10.7340   -0.3790    0.6190 C   0  0  0  0  0  0  0  0  0  0  0  0
   10.8580    0.2020    1.8870 O   0  0  0  0  0  0  0  0  0  0  0  0
    8.5370    1.4360   -1.9030 C   0  0  0  0  0  0  0  0  0  0  0  0
    9.2910    2.6140   -2.0600 N   0  0  0  0  0  0  0  0  0  0  0  0
    7.4790    1.2810   -2.5330 O   0  0  0  0  0  0  0  0  0  0  0  0
    3.5650   -2.1970    0.4910 C   0  0  0  0  0  0  0  0  0  0  0  0
    2.3040   -1.9440    0.9350 C   0  0  0  0  0  0  0  0  0  0  0  0
   -3.3470    0.1560    0.4930 C   0  0  0  0  0  0  0  0  0  0  0  0
   -4.5730   -0.4460    0.2730 C   0  0  0  0  0  0  0  0  0  0  0  0
   -5.5720   -0.4040    1.3420 C   0  0  2  0  0  0  0  0  0  0  0  0
   -6.0800   -1.7050    1.5850 O   0  0  0  0  0  0  0  0  0  0  0  0
   -6.6550    0.5560    1.1170 C   0  0  0  0  0  0  0  0  0  0  0  0
   -6.5590    1.4720    0.1070 C   0  0  0  0  0  0  0  0  0  0  0  0
   -7.5890    2.3660   -0.0850 C   0  0  0  0  0  0  0  0  0  0  0  0
   -7.5700    3.4000   -1.1610 C   0  0  0  0  0  0  0  0  0  0  0  0
   -8.6790    2.3350    0.7180 N   0  0  0  0  0  0  0  0  0  0  0  0
   -8.7750    1.4340    1.7120 C   0  0  0  0  0  0  0  0  0  0  0  0
   -9.8130    1.4470    2.4330 O   0  0  0  0  0  0  0  0  0  0  0  0
   -7.7580    0.5360    1.9160 C   0  0  0  0  0  0  0  0  0  0  0  0
  1  2  1  0
  2  3  1  0
  3  4  1  0
  4  5  2  0
  4 30  1  0
  5  6  1  0
  6  7  2  0
  7  8  1  0
  7 29  1  0
  8  9  1  0
  9 10  1  0
 10 11  1  0
 11 12  1  0
 12 13  2  0
 12 28  1  0
 13 14  1  0
 14 15  2  0
 15 16  1  0
 15 27  1  0
 16 17  2  0
 16 18  1  0
 18 19  1  0
 19 20  1  0
 20 21  2  3
 20 24  1  0
 21 22  1  0
 22 23  1  0
 24 25  1  0
 24 26  2  0
 27 28  2  0
 29 30  2  0
 30 31  1  0
 31 32  1  6
 31 33  1  0
 33 34  1  0
 33 40  2  0
 34 35  2  0
 35 36  1  0
 35 37  1  0
 37 38  1  0
 38 39  2  0
 38 40  1  0
M  END
