
     RDKit          3D

 40 43  0  0  0  0  0  0  0  0999 V2000
   -4.1020   -2.5470    1.5560 C   0  0  0  0  0  0  0  0  0  0  0  0
   -2.6640   -2.1540    1.7990 C   0  0  0  0  0  0  0  0  0  0  0  0
   -1.7930   -2.2450    0.5830 C   0  0  1  0  0  0  0  0  0  0  0  0
   -1.9050   -3.7230    0.1230 C   0  0  0  0  0  0  0  0  0  0  0  0
   -1.3980   -4.5280    1.3120 C   0  0  0  0  0  0  0  0  0  0  0  0
   -2.0520   -1.3040   -0.5060 C   0  0  0  0  0  0  0  0  0  0  0  0
   -1.9380    0.1040   -0.2980 N   0  0  0  0  0  0  0  0  0  0  0  0
   -0.7610    0.4040    0.3910 C   0  0  0  0  0  0  0  0  0  0  0  0
    0.0880    1.5710   -0.1710 C   0  0  1  0  0  0  0  0  0  0  0  0
   -0.6730    2.6780   -0.0130 O   0  0  0  0  0  0  0  0  0  0  0  0
    1.4160    1.4720    0.4390 C   0  0  2  0  0  0  0  0  0  0  0  0
    2.4780    2.4470    0.2420 C   0  0  0  0  0  0  0  0  0  0  0  0
    2.3620    3.8580    0.6120 C   0  0  2  0  0  0  0  0  0  0  0  0
    1.3300    4.6930   -0.0820 C   0  0  0  0  0  0  0  0  0  0  0  0
    1.9180    6.1020   -0.4050 C   0  0  0  0  0  0  0  0  0  0  0  0
    2.5220    6.6950    0.8230 C   0  0  0  0  0  0  0  0  0  0  0  0
    3.7020    5.8530    1.2180 C   0  0  0  0  0  0  0  0  0  0  0  0
    3.7120    4.5940    0.4270 C   0  0  0  0  0  0  0  0  0  0  0  0
    1.9210    0.1310    0.0710 N   0  0  0  0  0  0  0  0  0  0  0  0
    2.2120   -0.8920    0.9870 C   0  0  0  0  0  0  0  0  0  0  0  0
    2.0460   -0.6860    2.1840 O   0  0  0  0  0  0  0  0  0  0  0  0
    2.6870   -2.1340    0.5700 O   0  0  0  0  0  0  0  0  0  0  0  0
    2.9730   -3.1730    1.5010 C   0  0  1  0  0  0  0  0  0  0  0  0
    2.0850   -4.3250    1.1040 C   0  0  0  0  0  0  0  0  0  0  0  0
    2.8480   -5.3080    0.5190 O   0  0  0  0  0  0  0  0  0  0  0  0
    4.0750   -4.7520    0.1880 C   0  0  1  0  0  0  0  0  0  0  0  0
    3.8550   -3.9040   -0.8990 O   0  0  0  0  0  0  0  0  0  0  0  0
    4.8200   -2.9260   -0.8630 C   0  0  0  0  0  0  0  0  0  0  0  0
    5.2880   -2.7830    0.5680 C   0  0  0  0  0  0  0  0  0  0  0  0
    4.3520   -3.7270    1.2850 C   0  0  1  0  0  0  0  0  0  0  0  0
   -3.3600    0.9480   -0.0440 S   0  0  1  0  0  0  0  0  0  0  0  0
   -4.2060    0.5660    1.1030 O   0  0  0  0  0  0  0  0  0  0  0  0
   -3.1150    2.4550   -0.0310 O   0  0  0  0  0  0  0  0  0  0  0  0
   -4.3820    0.7430   -1.4920 C   0  0  0  0  0  0  0  0  0  0  0  0
   -5.3580   -0.2170   -1.5270 C   0  0  0  0  0  0  0  0  0  0  0  0
   -6.1650   -0.4210   -2.6360 C   0  0  0  0  0  0  0  0  0  0  0  0
   -5.9950    0.3640   -3.7560 C   0  0  0  0  0  0  0  0  0  0  0  0
   -6.8040    0.1850   -4.9170 N   0  0  0  0  0  0  0  0  0  0  0  0
   -5.0170    1.3290   -3.7240 C   0  0  0  0  0  0  0  0  0  0  0  0
   -4.2020    1.5350   -2.6060 C   0  0  0  0  0  0  0  0  0  0  0  0
  1  2  1  0
  3  2  1  1
  3  4  1  0
  3  6  1  0
  4  5  1  0
  6  7  1  0
  7  8  1  0
 31  7  1  6
  8  9  1  0
  9 10  1  1
  9 11  1  0
 11 12  1  6
 11 19  1  0
 13 12  1  6
 13 14  1  0
 13 18  1  0
 14 15  1  0
 15 16  1  0
 16 17  1  0
 17 18  1  0
 19 20  1  0
 20 21  2  0
 20 22  1  0
 23 22  1  6
 23 24  1  0
 23 30  1  0
 24 25  1  0
 26 25  1  1
 26 27  1  0
 26 30  1  0
 27 28  1  0
 28 29  1  0
 30 29  1  6
 31 32  2  0
 31 33  2  0
 31 34  1  0
 34 35  2  0
 34 40  1  0
 35 36  1  0
 36 37  2  0
 37 38  1  0
 37 39  1  0
 39 40  2  0
M  END
