
     RDKit          3D

 42 46  0  0  0  0  0  0  0  0999 V2000
    0.5560    3.2610    2.5640 C   0  0  0  0  0  0  0  0  0  0  0  0
   -0.0210    4.0050    1.6390 C   0  0  0  0  0  0  0  0  0  0  0  0
   -0.4380    3.4190    0.3670 C   0  0  0  0  0  0  0  0  0  0  0  0
   -1.0960    4.3890   -0.5800 C   0  0  0  0  0  0  0  0  0  0  0  0
   -2.4240    5.2490    0.2610 Cl  0  0  0  0  0  0  0  0  0  0  0  0
   -0.2350    2.2120    0.1700 N   0  0  0  0  0  0  0  0  0  0  0  0
   -0.4240    1.2630   -0.7840 C   0  0  0  0  0  0  0  0  0  0  0  0
   -0.2320    1.5910   -2.0890 C   0  0  0  0  0  0  0  0  0  0  0  0
   -0.9090   -0.0740   -0.5720 C   0  0  0  0  0  0  0  0  0  0  0  0
   -2.3030   -0.3070   -0.7360 C   0  0  0  0  0  0  0  0  0  0  0  0
   -3.1540    0.8470   -0.9850 C   0  0  2  0  0  0  0  0  0  0  0  0
   -2.8870    1.6130   -2.0600 F   0  0  0  0  0  0  0  0  0  0  0  0
   -3.4110    1.8070    0.5310 Cl  0  0  0  0  0  0  0  0  0  0  0  0
   -2.8120   -1.5440   -0.6220 N   0  0  0  0  0  0  0  0  0  0  0  0
   -4.2430   -1.8230   -0.8060 C   0  0  0  0  0  0  0  0  0  0  0  0
   -4.9760   -1.6730    0.4690 C   0  0  0  0  0  0  0  0  0  0  0  0
   -4.3550   -1.3580    1.4660 O   0  0  0  0  0  0  0  0  0  0  0  0
   -6.4220   -1.8930    0.5600 C   0  0  0  0  0  0  0  0  0  0  0  0
   -7.0540   -2.2750   -0.7480 C   0  0  1  0  0  0  0  0  0  0  0  0
   -6.5610   -3.4270   -1.2910 F   0  0  0  0  0  0  0  0  0  0  0  0
   -8.4090   -2.5120   -0.4780 F   0  0  0  0  0  0  0  0  0  0  0  0
   -7.0420   -1.2170   -1.6510 F   0  0  0  0  0  0  0  0  0  0  0  0
   -2.0190   -2.5830   -0.3510 C   0  0  0  0  0  0  0  0  0  0  0  0
   -2.5180   -3.7330   -0.2490 O   0  0  0  0  0  0  0  0  0  0  0  0
   -0.6840   -2.4240   -0.1820 C   0  0  0  0  0  0  0  0  0  0  0  0
    0.0640   -3.4960    0.0820 N   0  0  0  0  0  0  0  0  0  0  0  0
    1.3580   -3.3920    0.2470 C   0  0  0  0  0  0  0  0  0  0  0  0
    1.9530   -2.1370    0.1440 C   0  0  0  0  0  0  0  0  0  0  0  0
    1.2700   -0.9770   -0.1240 C   0  0  0  0  0  0  0  0  0  0  0  0
   -0.1210   -1.1350   -0.2960 C   0  0  0  0  0  0  0  0  0  0  0  0
    1.9050    0.2480   -0.2010 C   0  0  0  0  0  0  0  0  0  0  0  0
    3.3890    0.1830    0.0220 C   0  0  0  0  0  0  0  0  0  0  0  0
    4.3000    1.2180    0.0110 N   0  0  0  0  0  0  0  0  0  0  0  0
    5.5280    0.7860    0.2550 C   0  0  0  0  0  0  0  0  0  0  0  0
    6.7890    1.3310    0.3650 C   0  0  0  0  0  0  0  0  0  0  0  0
    7.9070    0.5530    0.6400 C   0  0  0  0  0  0  0  0  0  0  0  0
    7.7680   -0.7980    0.8100 C   0  0  0  0  0  0  0  0  0  0  0  0
    6.4910   -1.3620    0.7000 C   0  0  0  0  0  0  0  0  0  0  0  0
    5.4070   -0.5690    0.4280 C   0  0  0  0  0  0  0  0  0  0  0  0
    4.0760   -0.8910    0.2760 N   0  0  0  0  0  0  0  0  0  0  0  0
    3.4230   -2.1360    0.3590 C   0  0  0  0  0  0  0  0  0  0  0  0
    4.0610   -3.1780    0.6020 O   0  0  0  0  0  0  0  0  0  0  0  0
  1  2  2  0
  2  3  1  0
  3  4  1  0
  3  6  2  3
  4  5  1  0
  6  7  1  0
  7  8  2  0
  7  9  1  0
  9 10  2  0
  9 30  1  0
 10 11  1  0
 10 14  1  0
 11 12  1  6
 11 13  1  0
 14 15  1  0
 14 23  1  0
 15 16  1  0
 16 17  2  0
 16 18  1  0
 18 19  1  0
 19 20  1  6
 19 21  1  0
 19 22  1  0
 23 24  2  0
 23 25  1  0
 25 26  2  0
 25 30  1  0
 26 27  1  0
 27 28  2  0
 28 29  1  0
 28 41  1  0
 29 30  2  0
 29 31  1  0
 31 32  1  0
 32 33  2  0
 32 40  1  0
 33 34  1  0
 34 35  2  0
 34 39  1  0
 35 36  1  0
 36 37  2  0
 37 38  1  0
 38 39  2  0
 39 40  1  0
 40 41  1  0
 41 42  2  0
M  END
