
     RDKit          3D

 42 45  0  0  0  0  0  0  0  0999 V2000
   -5.4640    1.5640   -1.9040 C   0  0  0  0  0  0  0  0  0  0  0  0
   -4.0190    1.7780   -1.5710 C   0  0  0  0  0  0  0  0  0  0  0  0
   -3.6020    1.5230   -0.1970 C   0  0  0  0  0  0  0  0  0  0  0  0
   -3.6260    0.1740    0.4020 C   0  0  1  0  0  0  0  0  0  0  0  0
   -4.9910   -0.4010    0.4180 C   0  0  0  0  0  0  0  0  0  0  0  0
   -5.0890   -1.7870    1.0650 C   0  0  0  0  0  0  0  0  0  0  0  0
   -6.5570   -2.1080    0.9290 C   0  0  0  0  0  0  0  0  0  0  0  0
   -7.4400   -1.7640    1.9300 C   0  0  0  0  0  0  0  0  0  0  0  0
   -8.8050   -2.0330    1.7680 C   0  0  0  0  0  0  0  0  0  0  0  0
   -9.2700   -2.6330    0.6260 C   0  0  0  0  0  0  0  0  0  0  0  0
   -8.3450   -2.9630   -0.3610 C   0  0  0  0  0  0  0  0  0  0  0  0
   -6.9890   -2.7030   -0.2150 C   0  0  0  0  0  0  0  0  0  0  0  0
   -2.6020   -0.7690   -0.2190 C   0  0  0  0  0  0  0  0  0  0  0  0
   -1.2680   -0.0980   -0.2420 C   0  0  0  0  0  0  0  0  0  0  0  0
   -0.4880   -0.3010   -1.3900 O   0  0  0  0  0  0  0  0  0  0  0  0
   -0.8380    0.6390    0.7390 C   0  0  0  0  0  0  0  0  0  0  0  0
    0.4310    1.3150    0.7920 C   0  0  2  0  0  0  0  0  0  0  0  0
    0.3610    2.6830    0.0800 C   0  0  0  0  0  0  0  0  0  0  0  0
    0.0140    2.6150   -1.3610 C   0  0  0  0  0  0  0  0  0  0  0  0
    1.6770    0.5940    0.4920 C   0  0  0  0  0  0  0  0  0  0  0  0
    1.8510   -0.7280    0.2610 C   0  0  0  0  0  0  0  0  0  0  0  0
    3.1180   -1.2550    0.0250 C   0  0  0  0  0  0  0  0  0  0  0  0
    4.2410   -0.4130    0.0260 C   0  0  0  0  0  0  0  0  0  0  0  0
    4.1110    0.9160    0.2540 C   0  0  0  0  0  0  0  0  0  0  0  0
    5.1880    1.8170    0.2680 N   0  0  0  0  0  0  0  0  0  0  0  0
    6.6580    1.7820    1.0810 S   0  0  2  0  0  0  0  0  0  0  0  0
    6.4070    1.8030    2.6100 O   0  0  0  0  0  0  0  0  0  0  0  0
    7.4510    3.0780    0.8700 O   0  0  0  0  0  0  0  0  0  0  0  0
    7.7560    0.4920    0.7140 C   0  0  0  0  0  0  0  0  0  0  0  0
    8.2920   -0.3660    1.6480 C   0  0  0  0  0  0  0  0  0  0  0  0
    9.2320   -1.2980    1.2830 C   0  0  0  0  0  0  0  0  0  0  0  0
    9.6320   -1.3670   -0.0260 C   0  0  0  0  0  0  0  0  0  0  0  0
   10.6870   -2.3580   -0.4560 C   0  0  1  0  0  0  0  0  0  0  0  0
   10.0900   -3.4930   -0.9240 F   0  0  0  0  0  0  0  0  0  0  0  0
   11.4330   -1.7680   -1.4680 F   0  0  0  0  0  0  0  0  0  0  0  0
   11.5310   -2.5810    0.5950 F   0  0  0  0  0  0  0  0  0  0  0  0
    9.0860   -0.5060   -0.9540 C   0  0  0  0  0  0  0  0  0  0  0  0
    8.1760    0.3820   -0.5480 N   0  0  0  0  0  0  0  0  0  0  0  0
    2.8230    1.3960    0.4850 C   0  0  0  0  0  0  0  0  0  0  0  0
   -1.8550    0.8650    1.8200 C   0  0  0  0  0  0  0  0  0  0  0  0
   -1.4480    1.5790    2.7920 O   0  0  0  0  0  0  0  0  0  0  0  0
   -3.1290    0.3330    1.7560 O   0  0  0  0  0  0  0  0  0  0  0  0
  1  2  1  0
  2  3  1  0
  4  3  1  6
  4  5  1  0
  4 13  1  0
  4 42  1  0
  5  6  1  0
  6  7  1  0
  7  8  2  0
  7 12  1  0
  8  9  1  0
  9 10  2  0
 10 11  1  0
 11 12  2  0
 13 14  1  0
 14 15  1  0
 14 16  2  0
 16 17  1  0
 16 40  1  0
 17 18  1  6
 17 20  1  0
 18 19  1  0
 20 21  2  0
 20 39  1  0
 21 22  1  0
 22 23  2  0
 23 24  1  0
 24 25  1  0
 24 39  2  0
 26 25  1  6
 26 27  2  0
 26 28  2  0
 26 29  1  0
 29 30  2  0
 29 38  1  0
 30 31  1  0
 31 32  2  0
 32 33  1  0
 32 37  1  0
 33 34  1  6
 33 35  1  0
 33 36  1  0
 37 38  2  0
 40 41  2  0
 40 42  1  0
M  END
