
     RDKit          3D

 42 45  0  0  0  0  0  0  0  0999 V2000
   -3.2600   -3.0360    3.0170 C   0  0  0  0  0  0  0  0  0  0  0  0
   -3.5500   -2.3470    1.7050 C   0  0  0  0  0  0  0  0  0  0  0  0
   -2.6110   -1.2280    1.4950 N   0  0  0  0  0  0  0  0  0  0  0  0
   -2.9320    0.0880    1.9960 C   0  0  0  0  0  0  0  0  0  0  0  0
   -3.4870    0.8970    0.9300 C   0  0  0  0  0  0  0  0  0  0  0  0
   -4.5920    0.6780    0.1760 N   0  0  0  0  0  0  0  0  0  0  0  0
   -4.5740   -0.4300   -0.7780 C   0  0  0  0  0  0  0  0  0  0  0  0
   -5.5690   -0.7190   -1.5510 C   0  0  0  0  0  0  0  0  0  0  0  0
   -5.4510   -2.0860   -2.6780 Cl  0  0  0  0  0  0  0  0  0  0  0  0
   -6.7730   -0.0450   -1.5980 O   0  0  0  0  0  0  0  0  0  0  0  0
   -6.9190    1.0440   -0.7290 C   0  0  0  0  0  0  0  0  0  0  0  0
   -8.0160    1.7590   -0.6890 C   0  0  0  0  0  0  0  0  0  0  0  0
   -8.1460    2.8160    0.1580 O   0  0  0  0  0  0  0  0  0  0  0  0
   -7.1870    3.2360    1.0880 C   0  0  0  0  0  0  0  0  0  0  0  0
   -5.9690    2.4050    1.0010 C   0  0  0  0  0  0  0  0  0  0  0  0
   -5.8010    1.4030    0.1730 C   0  0  0  0  0  0  0  0  0  0  0  0
   -1.4280   -1.5290    0.8310 C   0  0  0  0  0  0  0  0  0  0  0  0
   -1.3760   -2.8320    0.5310 O   0  0  0  0  0  0  0  0  0  0  0  0
   -0.2910   -0.8100    0.3830 C   0  0  0  0  0  0  0  0  0  0  0  0
    0.5400   -1.4020   -0.5770 C   0  0  0  0  0  0  0  0  0  0  0  0
    1.6400   -0.8150   -1.0170 N   0  0  0  0  0  0  0  0  0  0  0  0
    2.0540    0.4050   -0.5760 C   0  0  0  0  0  0  0  0  0  0  0  0
    3.2580    0.9820   -1.1000 N   0  0  0  0  0  0  0  0  0  0  0  0
    3.9370    0.2570   -2.1830 C   0  0  0  0  0  0  0  0  0  0  0  0
    3.2030    0.0040   -3.1960 C   0  0  0  0  0  0  0  0  0  0  0  0
    3.5360   -0.6860   -4.4470 C   0  0  2  0  0  0  0  0  0  0  0  0
    4.5110   -0.0060   -5.1430 F   0  0  0  0  0  0  0  0  0  0  0  0
    2.3790   -0.6210   -5.2690 F   0  0  0  0  0  0  0  0  0  0  0  0
    3.8280   -2.0050   -4.3100 F   0  0  0  0  0  0  0  0  0  0  0  0
    5.3280   -0.1090   -2.0010 C   0  0  0  0  0  0  0  0  0  0  0  0
    6.1020   -0.9940   -3.2730 Cl  0  0  0  0  0  0  0  0  0  0  0  0
    5.9270    0.2270   -0.8940 C   0  0  0  0  0  0  0  0  0  0  0  0
    7.3000   -0.0230   -0.4850 C   0  0  0  0  0  0  0  0  0  0  0  0
    7.7750    0.3880    0.7130 C   0  0  0  0  0  0  0  0  0  0  0  0
    9.1690    0.0140    0.8760 C   0  0  0  0  0  0  0  0  0  0  0  0
    9.5140   -0.6740   -0.3650 C   0  0  0  0  0  0  0  0  0  0  0  0
    8.4050   -0.6840   -1.1430 C   0  0  0  0  0  0  0  0  0  0  0  0
    8.3950   -1.2470   -2.3660 F   0  0  0  0  0  0  0  0  0  0  0  0
    1.2950    1.0340    0.3560 C   0  0  0  0  0  0  0  0  0  0  0  0
    1.6650    2.3080    0.8740 C   0  0  0  0  0  0  0  0  0  0  0  0
    1.9730    3.3570    1.3230 N   0  0  0  0  0  0  0  0  0  0  0  0
    0.1190    0.4020    0.8220 C   0  0  0  0  0  0  0  0  0  0  0  0
  1  2  1  0
  2  3  1  0
  3  4  1  0
  3 17  1  0
  4  5  1  0
  5  6  1  0
  6  7  1  0
  6 16  1  0
  7  8  2  0
  8  9  1  0
  8 10  1  0
 10 11  1  0
 11 12  2  0
 11 16  1  0
 12 13  1  0
 13 14  1  0
 14 15  1  0
 15 16  2  0
 17 18  2  0
 17 19  1  0
 19 20  2  0
 19 42  1  0
 20 21  1  0
 21 22  2  0
 22 23  1  0
 22 39  1  0
 23 24  1  0
 24 25  2  3
 24 30  1  0
 25 26  1  0
 26 27  1  6
 26 28  1  0
 26 29  1  0
 30 31  1  0
 30 32  2  3
 32 33  1  0
 33 34  2  0
 33 37  1  0
 34 35  1  0
 35 36  1  0
 36 37  2  0
 37 38  1  0
 39 40  1  0
 39 42  2  0
 40 41  3  0
M  END
