
     RDKit          3D

 42 46  0  0  0  0  0  0  0  0999 V2000
   -5.2400   -4.7690   -0.8930 C   0  0  0  0  0  0  0  0  0  0  0  0
   -4.4340   -3.7200   -0.2330 C   0  0  0  0  0  0  0  0  0  0  0  0
   -3.9310   -2.6870   -0.9790 C   0  0  0  0  0  0  0  0  0  0  0  0
   -3.1690   -1.6480   -0.4270 C   0  0  0  0  0  0  0  0  0  0  0  0
   -2.9270   -1.6830    0.9150 C   0  0  0  0  0  0  0  0  0  0  0  0
   -2.2070   -0.6860    1.5890 N   0  0  0  0  0  0  0  0  0  0  0  0
   -3.0060    0.2010    2.4570 C   0  0  0  0  0  0  0  0  0  0  0  0
   -4.4610    0.1700    2.1440 C   0  0  0  0  0  0  0  0  0  0  0  0
   -4.6630    0.6900    0.7790 N   0  0  0  0  0  0  0  0  0  0  0  0
   -5.9530    0.7720    0.1820 C   0  0  0  0  0  0  0  0  0  0  0  0
   -6.9290    0.3830    0.8450 O   0  0  0  0  0  0  0  0  0  0  0  0
   -6.1660    1.2550   -1.0740 O   0  0  0  0  0  0  0  0  0  0  0  0
   -7.3490    1.4090   -1.7780 C   0  0  0  0  0  0  0  0  0  0  0  0
   -8.2510    2.4110   -1.1110 C   0  0  2  0  0  0  0  0  0  0  0  0
   -7.5940    3.6480   -1.0360 F   0  0  0  0  0  0  0  0  0  0  0  0
   -8.6220    1.9940    0.1340 F   0  0  0  0  0  0  0  0  0  0  0  0
   -9.4010    2.6200   -1.9140 F   0  0  0  0  0  0  0  0  0  0  0  0
   -0.8140   -0.4680    1.5960 C   0  0  0  0  0  0  0  0  0  0  0  0
   -0.2400    0.1830    0.4040 C   0  0  0  0  0  0  0  0  0  0  0  0
   -0.8130    0.7850   -0.6270 N   0  0  0  0  0  0  0  0  0  0  0  0
    0.1220    1.2080   -1.4380 N   0  0  0  0  0  0  0  0  0  0  0  0
    1.3430    0.8740   -0.9220 C   0  0  0  0  0  0  0  0  0  0  0  0
    2.6300    1.1710   -1.5220 C   0  0  0  0  0  0  0  0  0  0  0  0
    2.6520    1.7900   -2.7510 C   0  0  0  0  0  0  0  0  0  0  0  0
    3.8630    2.1070   -3.3500 C   0  0  0  0  0  0  0  0  0  0  0  0
    5.0330    1.7910   -2.6950 C   0  0  0  0  0  0  0  0  0  0  0  0
    6.5770    2.1890   -3.4660 Cl  0  0  0  0  0  0  0  0  0  0  0  0
    5.0090    1.1760   -1.4730 C   0  0  0  0  0  0  0  0  0  0  0  0
    6.2620    0.9070   -0.8470 N   0  0  0  0  0  0  0  0  0  0  0  0
    7.1660    1.9690   -0.4260 C   0  0  0  0  0  0  0  0  0  0  0  0
    8.0360    1.3330    0.5960 C   0  0  0  0  0  0  0  0  0  0  0  0
    8.9060    1.6700    1.5150 C   0  0  0  0  0  0  0  0  0  0  0  0
    9.3750    0.4230    2.1600 C   0  0  0  0  0  0  0  0  0  0  0  0
    8.6290   -0.6400    1.4530 C   0  0  0  0  0  0  0  0  0  0  0  0
    8.7030   -1.9860    1.6750 F   0  0  0  0  0  0  0  0  0  0  0  0
    7.8330   -0.1030    0.5240 C   0  0  0  0  0  0  0  0  0  0  0  0
    6.8420   -0.3570   -0.5340 C   0  0  0  0  0  0  0  0  0  0  0  0
    3.7850    0.8550   -0.8660 C   0  0  0  0  0  0  0  0  0  0  0  0
    1.0620    0.2460    0.2080 O   0  0  0  0  0  0  0  0  0  0  0  0
   -3.4350   -2.7420    1.7070 C   0  0  0  0  0  0  0  0  0  0  0  0
   -3.0950   -2.7870    3.4250 Cl  0  0  0  0  0  0  0  0  0  0  0  0
   -4.1620   -3.7090    1.1080 C   0  0  0  0  0  0  0  0  0  0  0  0
  1  2  1  0
  2  3  2  0
  2 42  1  0
  3  4  1  0
  4  5  2  0
  5  6  1  0
  5 40  1  0
  6  7  1  0
  6 18  1  0
  7  8  1  0
  8  9  1  0
  9 10  1  0
 10 11  2  0
 10 12  1  0
 12 13  1  0
 13 14  1  0
 14 15  1  1
 14 16  1  0
 14 17  1  0
 18 19  1  0
 19 20  2  0
 19 39  1  0
 20 21  1  0
 21 22  2  0
 22 23  1  0
 22 39  1  0
 23 24  2  0
 23 38  1  0
 24 25  1  0
 25 26  2  0
 26 27  1  0
 26 28  1  0
 28 29  1  0
 28 38  2  0
 29 30  1  0
 29 37  1  0
 30 31  1  0
 31 32  2  0
 31 36  1  0
 32 33  1  0
 33 34  1  0
 34 35  1  0
 34 36  2  0
 36 37  1  0
 40 41  1  0
 40 42  2  0
M  END
