
     RDKit          3D

 42 46  0  0  0  0  0  0  0  0999 V2000
    1.4550   -2.5470    0.9430 C   0  0  0  0  0  0  0  0  0  0  0  0
    1.3500   -1.1040    0.4680 C   0  0  1  0  0  0  0  0  0  0  0  0
    2.5990   -0.3970    0.6720 N   0  0  0  0  0  0  0  0  0  0  0  0
    3.6930   -0.7450   -0.1610 C   0  0  0  0  0  0  0  0  0  0  0  0
    5.0040   -0.4090    0.1780 C   0  0  0  0  0  0  0  0  0  0  0  0
    6.0900   -0.7320   -0.6110 C   0  0  0  0  0  0  0  0  0  0  0  0
    7.4730   -0.3720   -0.2310 C   0  0  0  0  0  0  0  0  0  0  0  0
    7.9530    0.7820   -1.0790 C   0  0  0  0  0  0  0  0  0  0  0  0
    7.1550    2.0340   -0.9390 C   0  0  0  0  0  0  0  0  0  0  0  0
    7.1740    2.5840    0.4690 C   0  0  1  0  0  0  0  0  0  0  0  0
    8.4670    2.8840    0.8720 F   0  0  0  0  0  0  0  0  0  0  0  0
    6.1970    4.0810    0.4580 Cl  0  0  0  0  0  0  0  0  0  0  0  0
    5.8850   -1.4270   -1.8010 C   0  0  0  0  0  0  0  0  0  0  0  0
    7.2490   -1.8590   -2.8290 Cl  0  0  0  0  0  0  0  0  0  0  0  0
    4.6010   -1.7680   -2.1530 C   0  0  0  0  0  0  0  0  0  0  0  0
    3.5100   -1.4300   -1.3380 C   0  0  0  0  0  0  0  0  0  0  0  0
    2.1340   -1.8170   -1.7510 C   0  0  0  0  0  0  0  0  0  0  0  0
    1.1380   -1.1570   -0.9660 N   0  0  0  0  0  0  0  0  0  0  0  0
   -0.0960   -0.4850   -1.2030 C   0  0  0  0  0  0  0  0  0  0  0  0
   -0.6110   -0.3080   -2.3340 O   0  0  0  0  0  0  0  0  0  0  0  0
   -0.6710   -0.0400    0.0030 N   0  0  0  0  0  0  0  0  0  0  0  0
   -1.9140    0.6810    0.2290 C   0  0  0  0  0  0  0  0  0  0  0  0
   -3.0210   -0.2730    0.4290 C   0  0  0  0  0  0  0  0  0  0  0  0
   -2.7910   -1.5830    0.3840 N   0  0  0  0  0  0  0  0  0  0  0  0
   -3.8120   -2.4320    0.5690 C   0  0  0  0  0  0  0  0  0  0  0  0
   -5.0780   -1.9520    0.8020 C   0  0  0  0  0  0  0  0  0  0  0  0
   -6.1560   -2.7850    1.0000 C   0  0  0  0  0  0  0  0  0  0  0  0
   -7.4200   -2.2950    1.2350 C   0  0  0  0  0  0  0  0  0  0  0  0
   -7.6080   -0.9370    1.2720 C   0  0  0  0  0  0  0  0  0  0  0  0
   -6.5680   -0.0390    1.0810 C   0  0  0  0  0  0  0  0  0  0  0  0
   -6.8360    1.3740    1.1280 C   0  0  0  0  0  0  0  0  0  0  0  0
   -8.0300    1.7370    1.3960 O   0  0  0  0  0  0  0  0  0  0  0  0
   -5.8560    2.4200    0.8940 C   0  0  0  0  0  0  0  0  0  0  0  0
   -5.7560    2.8080   -0.5600 C   0  0  0  0  0  0  0  0  0  0  0  0
   -7.0580    3.3290   -1.0950 C   0  0  2  0  0  0  0  0  0  0  0  0
   -8.0890    2.4250   -1.0330 F   0  0  0  0  0  0  0  0  0  0  0  0
   -6.8560    3.6870   -2.4150 F   0  0  0  0  0  0  0  0  0  0  0  0
   -7.4210    4.4560   -0.3700 F   0  0  0  0  0  0  0  0  0  0  0  0
   -5.3300   -0.5760    0.8510 C   0  0  0  0  0  0  0  0  0  0  0  0
   -4.2490    0.1890    0.6550 N   0  0  0  0  0  0  0  0  0  0  0  0
    0.1970   -0.4250    1.0540 C   0  0  0  0  0  0  0  0  0  0  0  0
    0.0240   -0.2260    2.2670 O   0  0  0  0  0  0  0  0  0  0  0  0
  2  1  1  1
  2  3  1  0
  2 18  1  0
  2 41  1  0
  3  4  1  0
  4  5  2  0
  4 16  1  0
  5  6  1  0
  6  7  1  0
  6 13  2  0
  7  8  1  0
  8  9  1  0
  9 10  1  0
 10 11  1  6
 10 12  1  0
 13 14  1  0
 13 15  1  0
 15 16  2  0
 16 17  1  0
 17 18  1  0
 18 19  1  0
 19 20  2  0
 19 21  1  0
 21 22  1  0
 21 41  1  0
 22 23  1  0
 23 24  2  0
 23 40  1  0
 24 25  1  0
 25 26  2  0
 26 27  1  0
 26 39  1  0
 27 28  2  0
 28 29  1  0
 29 30  2  0
 30 31  1  0
 30 39  1  0
 31 32  2  0
 31 33  1  0
 33 34  1  0
 34 35  1  0
 35 36  1  6
 35 37  1  0
 35 38  1  0
 39 40  2  0
 41 42  2  0
M  END
