
     RDKit          3D

 41 45  0  0  0  0  0  0  0  0999 V2000
   -3.1650    0.2240   -2.3870 C   0  0  0  0  0  0  0  0  0  0  0  0
   -3.4210   -0.5310   -1.0900 C   0  0  0  0  0  0  0  0  0  0  0  0
   -2.5420   -0.0680    0.0010 C   0  0  0  0  0  0  0  0  0  0  0  0
   -2.7320    1.1540    0.6080 C   0  0  0  0  0  0  0  0  0  0  0  0
   -3.8750    1.9930    0.1530 C   0  0  0  0  0  0  0  0  0  0  0  0
   -4.3570    2.9560    1.2010 C   0  0  0  0  0  0  0  0  0  0  0  0
   -5.4230    3.6790    0.7090 O   0  0  0  0  0  0  0  0  0  0  0  0
   -6.5430    2.9910    0.3600 C   0  0  0  0  0  0  0  0  0  0  0  0
   -1.9300    1.6220    1.6190 C   0  0  0  0  0  0  0  0  0  0  0  0
   -0.8790    0.8180    2.0450 C   0  0  0  0  0  0  0  0  0  0  0  0
    0.1490    1.4190    3.3390 Cl  0  0  0  0  0  0  0  0  0  0  0  0
   -0.6510   -0.4160    1.4650 C   0  0  0  0  0  0  0  0  0  0  0  0
   -1.4990   -0.8350    0.4440 C   0  0  0  0  0  0  0  0  0  0  0  0
   -1.2450   -2.1070   -0.0950 N   0  0  0  0  0  0  0  0  0  0  0  0
   -0.1690   -2.2950   -0.8640 C   0  0  0  0  0  0  0  0  0  0  0  0
    0.7790   -1.2790   -1.1470 N   0  0  0  0  0  0  0  0  0  0  0  0
    0.6500   -0.0170   -1.7880 C   0  0  0  0  0  0  0  0  0  0  0  0
    1.9630    0.7000   -1.5560 C   0  0  0  0  0  0  0  0  0  0  0  0
    2.8520   -0.2220   -0.9200 N   0  0  0  0  0  0  0  0  0  0  0  0
    4.1690    0.0050   -0.5030 C   0  0  0  0  0  0  0  0  0  0  0  0
    4.5690    0.9460    0.4280 C   0  0  0  0  0  0  0  0  0  0  0  0
    5.8780    1.1250    0.8280 C   0  0  0  0  0  0  0  0  0  0  0  0
    6.1870    2.1440    1.8380 C   0  0  2  0  0  0  0  0  0  0  0  0
    7.1660    3.1830    1.3400 C   0  0  0  0  0  0  0  0  0  0  0  0
    6.6540    1.5750    3.0150 F   0  0  0  0  0  0  0  0  0  0  0  0
    5.0170    2.8010    2.1740 F   0  0  0  0  0  0  0  0  0  0  0  0
    6.8580    0.3160    0.2680 C   0  0  0  0  0  0  0  0  0  0  0  0
    8.5100    0.5440    0.7760 Cl  0  0  0  0  0  0  0  0  0  0  0  0
    6.4830   -0.6180   -0.6530 C   0  0  0  0  0  0  0  0  0  0  0  0
    5.1800   -0.7950   -1.0520 C   0  0  0  0  0  0  0  0  0  0  0  0
    4.8320   -1.7280   -1.9720 F   0  0  0  0  0  0  0  0  0  0  0  0
    2.1660   -1.4520   -0.7730 C   0  0  0  0  0  0  0  0  0  0  0  0
    2.7030   -2.5320   -0.3720 O   0  0  0  0  0  0  0  0  0  0  0  0
    0.0570   -3.5400   -1.3850 N   0  0  0  0  0  0  0  0  0  0  0  0
   -0.7350   -4.5790   -1.1670 C   0  0  0  0  0  0  0  0  0  0  0  0
   -0.4760   -5.7180   -1.6780 O   0  0  0  0  0  0  0  0  0  0  0  0
   -1.8420   -4.3820   -0.3730 C   0  0  0  0  0  0  0  0  0  0  0  0
   -2.7890   -5.2500    0.0060 N   0  0  0  0  0  0  0  0  0  0  0  0
   -3.6740   -4.5860    0.7980 C   0  0  0  0  0  0  0  0  0  0  0  0
   -3.2540   -3.2710    0.9050 C   0  0  0  0  0  0  0  0  0  0  0  0
   -2.1000   -3.1440    0.1660 C   0  0  0  0  0  0  0  0  0  0  0  0
  1  2  1  0
  2  3  1  0
  3  4  2  0
  3 13  1  0
  4  5  1  0
  4  9  1  0
  5  6  1  0
  6  7  1  0
  7  8  1  0
  9 10  2  0
 10 11  1  0
 10 12  1  0
 12 13  2  0
 13 14  1  0
 14 15  1  0
 14 41  1  0
 15 16  1  0
 15 34  2  0
 16 17  1  0
 16 32  1  0
 17 18  1  0
 18 19  1  0
 19 20  1  0
 19 32  1  0
 20 21  2  0
 20 30  1  0
 21 22  1  0
 22 23  1  0
 22 27  2  0
 23 24  1  6
 23 25  1  0
 23 26  1  0
 27 28  1  0
 27 29  1  0
 29 30  2  0
 30 31  1  0
 32 33  2  0
 34 35  1  0
 35 36  2  0
 35 37  1  0
 37 38  1  0
 37 41  2  0
 38 39  1  0
 39 40  2  0
 40 41  1  0
M  END
