
     RDKit          3D

 42 45  0  0  0  0  0  0  0  0999 V2000
   -6.2980   -0.8490   -2.9900 C   0  0  0  0  0  0  0  0  0  0  0  0
   -5.1800   -0.1500   -2.2410 C   0  0  0  0  0  0  0  0  0  0  0  0
   -4.6520   -0.9930   -1.1280 C   0  0  0  0  0  0  0  0  0  0  0  0
   -3.5620   -0.2690   -0.3850 C   0  0  1  0  0  0  0  0  0  0  0  0
   -4.0520    1.0420    0.2320 C   0  0  0  0  0  0  0  0  0  0  0  0
   -5.2670    0.7480    1.0720 C   0  0  0  0  0  0  0  0  0  0  0  0
   -5.6860    1.9300    1.8430 C   0  0  0  0  0  0  0  0  0  0  0  0
   -6.0180    3.1540    1.3230 C   0  0  0  0  0  0  0  0  0  0  0  0
   -6.4640    4.1940    2.0940 C   0  0  0  0  0  0  0  0  0  0  0  0
   -6.6060    4.0640    3.4550 C   0  0  0  0  0  0  0  0  0  0  0  0
   -6.2750    2.8240    4.0100 C   0  0  0  0  0  0  0  0  0  0  0  0
   -5.8290    1.7930    3.2260 C   0  0  0  0  0  0  0  0  0  0  0  0
   -2.8250   -0.9940    0.6560 C   0  0  0  0  0  0  0  0  0  0  0  0
   -1.5630   -1.6590    0.3230 C   0  0  0  0  0  0  0  0  0  0  0  0
   -0.9240   -2.4790    1.2690 O   0  0  0  0  0  0  0  0  0  0  0  0
   -0.9630   -1.5290   -0.8400 C   0  0  0  0  0  0  0  0  0  0  0  0
    0.3060   -2.2010   -1.1880 C   0  0  2  0  0  0  0  0  0  0  0  0
    0.6010   -3.4860   -0.5110 C   0  0  0  0  0  0  0  0  0  0  0  0
   -0.3880   -4.5910   -0.7160 C   0  0  0  0  0  0  0  0  0  0  0  0
    1.5440   -1.4040   -1.2600 C   0  0  0  0  0  0  0  0  0  0  0  0
    1.8940   -0.6250   -2.3370 C   0  0  0  0  0  0  0  0  0  0  0  0
    3.1170    0.0570   -2.3640 C   0  0  0  0  0  0  0  0  0  0  0  0
    4.0290   -0.0400   -1.2900 C   0  0  0  0  0  0  0  0  0  0  0  0
    3.7170   -0.7990   -0.2250 C   0  0  0  0  0  0  0  0  0  0  0  0
    4.6190   -1.1060    0.8220 N   0  0  0  0  0  0  0  0  0  0  0  0
    6.2840   -1.2200    0.8270 S   0  0  1  0  0  0  0  0  0  0  0  0
    6.6990   -1.8080    2.1720 O   0  0  0  0  0  0  0  0  0  0  0  0
    6.7120   -2.2670   -0.2510 O   0  0  0  0  0  0  0  0  0  0  0  0
    7.2190    0.2000    0.5500 C   0  0  0  0  0  0  0  0  0  0  0  0
    8.2800    0.4810    1.4590 C   0  0  0  0  0  0  0  0  0  0  0  0
    9.1280    1.5420    1.3100 C   0  0  0  0  0  0  0  0  0  0  0  0
    9.0010    2.4120    0.2490 C   0  0  0  0  0  0  0  0  0  0  0  0
    9.9370    3.5590    0.0880 C   0  0  2  0  0  0  0  0  0  0  0  0
   10.4140    3.6300   -1.1870 F   0  0  0  0  0  0  0  0  0  0  0  0
   10.9340    3.4160    1.0290 F   0  0  0  0  0  0  0  0  0  0  0  0
    9.2530    4.7400    0.3960 F   0  0  0  0  0  0  0  0  0  0  0  0
    7.9710    2.1300   -0.6220 C   0  0  0  0  0  0  0  0  0  0  0  0
    7.1570    1.0760   -0.4400 N   0  0  0  0  0  0  0  0  0  0  0  0
    2.4700   -1.4660   -0.2330 C   0  0  0  0  0  0  0  0  0  0  0  0
   -1.5560   -0.5940   -1.8030 C   0  0  0  0  0  0  0  0  0  0  0  0
   -1.0370   -0.4370   -2.9580 O   0  0  0  0  0  0  0  0  0  0  0  0
   -2.6730    0.1080   -1.4790 O   0  0  0  0  0  0  0  0  0  0  0  0
  1  2  1  0
  2  3  1  0
  4  3  1  6
  4  5  1  0
  4 13  1  0
  4 42  1  0
  5  6  1  0
  6  7  1  0
  7  8  2  0
  7 12  1  0
  8  9  1  0
  9 10  2  0
 10 11  1  0
 11 12  2  0
 13 14  1  0
 14 15  1  0
 14 16  2  0
 16 17  1  0
 16 40  1  0
 17 18  1  1
 17 20  1  0
 18 19  1  0
 20 21  2  0
 20 39  1  0
 21 22  1  0
 22 23  2  0
 23 24  1  0
 24 25  1  0
 24 39  2  0
 26 25  1  1
 26 27  2  0
 26 28  2  0
 26 29  1  0
 29 30  2  0
 29 38  1  0
 30 31  1  0
 31 32  2  0
 32 33  1  0
 32 37  1  0
 33 34  1  6
 33 35  1  0
 33 36  1  0
 37 38  2  0
 40 41  2  0
 40 42  1  0
M  END
