
     RDKit          3D

 41 45  0  0  0  0  0  0  0  0999 V2000
   -3.7930    0.2560    2.5370 C   0  0  0  0  0  0  0  0  0  0  0  0
   -3.0460   -0.9400    2.2440 O   0  0  0  0  0  0  0  0  0  0  0  0
   -2.0900   -0.5890    1.3560 C   0  0  0  0  0  0  0  0  0  0  0  0
   -2.5720   -0.7230   -0.1820 C   0  0  2  0  0  0  0  0  0  0  0  0
   -2.9000   -2.1460   -0.2570 C   0  0  0  0  0  0  0  0  0  0  0  0
   -4.2680   -2.5460   -0.2640 C   0  0  0  0  0  0  0  0  0  0  0  0
   -4.6710   -3.8340   -0.4060 C   0  0  0  0  0  0  0  0  0  0  0  0
   -6.0270   -4.1990   -0.3940 O   0  0  0  0  0  0  0  0  0  0  0  0
   -3.7740   -4.8480   -0.5580 C   0  0  0  0  0  0  0  0  0  0  0  0
   -4.3110   -6.5170   -0.7520 Cl  0  0  0  0  0  0  0  0  0  0  0  0
   -2.4450   -4.5280   -0.5540 C   0  0  0  0  0  0  0  0  0  0  0  0
   -2.0450   -3.1990   -0.4010 C   0  0  0  0  0  0  0  0  0  0  0  0
   -0.6890   -3.1200   -0.2000 F   0  0  0  0  0  0  0  0  0  0  0  0
   -1.6330    0.0360   -0.8790 N   0  0  0  0  0  0  0  0  0  0  0  0
   -1.9330    1.2730   -1.6450 C   0  0  0  0  0  0  0  0  0  0  0  0
   -2.0420    2.5470   -0.9930 C   0  0  0  0  0  0  0  0  0  0  0  0
   -3.1710    2.8290   -0.1960 C   0  0  0  0  0  0  0  0  0  0  0  0
   -3.4880    4.0630    0.3000 C   0  0  0  0  0  0  0  0  0  0  0  0
   -4.6290    4.2720    1.0470 F   0  0  0  0  0  0  0  0  0  0  0  0
   -2.6700    5.1320    0.0250 C   0  0  0  0  0  0  0  0  0  0  0  0
   -3.0370    6.7240    0.7020 Cl  0  0  0  0  0  0  0  0  0  0  0  0
   -1.5680    4.9120   -0.7460 C   0  0  0  0  0  0  0  0  0  0  0  0
   -1.2650    3.6550   -1.2420 C   0  0  0  0  0  0  0  0  0  0  0  0
   -0.1660    3.6070   -2.0470 F   0  0  0  0  0  0  0  0  0  0  0  0
   -0.2590   -0.3640   -1.0770 C   0  0  0  0  0  0  0  0  0  0  0  0
   -0.1340   -1.5500   -1.4620 O   0  0  0  0  0  0  0  0  0  0  0  0
    0.9330    0.4050   -0.8380 C   0  0  0  0  0  0  0  0  0  0  0  0
    2.1500   -0.3380   -0.7660 C   0  0  0  0  0  0  0  0  0  0  0  0
    3.3030    0.2100   -0.2740 C   0  0  0  0  0  0  0  0  0  0  0  0
    4.5060   -0.6450   -0.1700 C   0  0  0  0  0  0  0  0  0  0  0  0
    4.5100   -2.0200    0.0180 C   0  0  0  0  0  0  0  0  0  0  0  0
    5.7830   -2.3950    0.0470 N   0  0  0  0  0  0  0  0  0  0  0  0
    6.5770   -1.3370   -0.1140 N   0  0  0  0  0  0  0  0  0  0  0  0
    7.9200   -1.2160   -0.1310 C   0  0  0  0  0  0  0  0  0  0  0  0
    8.4770    0.0400   -0.2850 C   0  0  0  0  0  0  0  0  0  0  0  0
    7.6720    1.1370   -0.4190 C   0  0  0  0  0  0  0  0  0  0  0  0
    6.3500    0.9630   -0.3990 N   0  0  0  0  0  0  0  0  0  0  0  0
    5.8010   -0.2510   -0.2470 C   0  0  0  0  0  0  0  0  0  0  0  0
    3.3580    1.5130    0.1710 C   0  0  0  0  0  0  0  0  0  0  0  0
    2.1560    2.2290    0.0820 C   0  0  0  0  0  0  0  0  0  0  0  0
    1.0440    1.6440   -0.4050 N   0  0  0  0  0  0  0  0  0  0  0  0
  1  2  1  0
  2  3  1  0
  4  3  1  1
  4  5  1  0
  4 14  1  0
  5  6  2  0
  5 12  1  0
  6  7  1  0
  7  8  1  0
  7  9  2  0
  9 10  1  0
  9 11  1  0
 11 12  2  0
 12 13  1  0
 14 15  1  0
 14 25  1  0
 15 16  1  0
 16 17  2  0
 16 23  1  0
 17 18  1  0
 18 19  1  0
 18 20  2  0
 20 21  1  0
 20 22  1  0
 22 23  2  0
 23 24  1  0
 25 26  2  0
 25 27  1  0
 27 28  2  0
 27 41  1  0
 28 29  1  0
 29 30  1  0
 29 39  2  0
 30 31  1  0
 30 38  2  0
 31 32  2  0
 32 33  1  0
 33 34  1  0
 33 38  1  0
 34 35  2  0
 35 36  1  0
 36 37  2  0
 37 38  1  0
 39 40  1  0
 40 41  2  0
M  END
