
     RDKit          3D

 46 49  0  0  0  0  0  0  0  0999 V2000
   -2.5660    6.6510   -0.2620 C   0  0  0  0  0  0  0  0  0  0  0  0
   -1.5270    5.5740   -0.0280 C   0  0  0  0  0  0  0  0  0  0  0  0
   -2.1800    4.2260    0.1930 C   0  0  2  0  0  0  0  0  0  0  0  0
   -1.1910    3.1360    0.4280 C   0  0  0  0  0  0  0  0  0  0  0  0
   -0.2190    2.9240   -0.6930 C   0  0  0  0  0  0  0  0  0  0  0  0
    0.7450    3.9270   -0.6460 O   0  0  0  0  0  0  0  0  0  0  0  0
    2.0270    3.8580   -0.1760 C   0  0  0  0  0  0  0  0  0  0  0  0
    2.5160    5.0870   -0.1490 O   0  0  0  0  0  0  0  0  0  0  0  0
    2.8780    2.7440    0.2630 C   0  0  0  0  0  0  0  0  0  0  0  0
    4.1980    2.9600   -0.2080 C   0  0  0  0  0  0  0  0  0  0  0  0
    5.2420    2.1030    0.0300 C   0  0  0  0  0  0  0  0  0  0  0  0
    4.9390    0.9920    0.7680 C   0  0  0  0  0  0  0  0  0  0  0  0
    5.9960    0.0990    1.0260 O   0  0  0  0  0  0  0  0  0  0  0  0
    7.3020    0.1740    0.6460 C   0  0  2  0  0  0  0  0  0  0  0  0
    7.7740   -1.0520   -0.1400 C   0  0  0  0  0  0  0  0  0  0  0  0
    8.1810    0.1540    1.9120 C   0  0  0  0  0  0  0  0  0  0  0  0
    3.6270    0.7280    1.2650 C   0  0  0  0  0  0  0  0  0  0  0  0
    2.6080    1.6160    1.0030 C   0  0  0  0  0  0  0  0  0  0  0  0
    3.6560   -0.5010    1.9900 N   0  0  0  0  0  0  0  0  0  0  0  0
    2.7470   -1.6110    2.0210 C   0  0  0  0  0  0  0  0  0  0  0  0
    2.3550   -1.9660    3.1890 O   0  0  0  0  0  0  0  0  0  0  0  0
    2.2370   -2.3580    0.8800 C   0  0  2  0  0  0  0  0  0  0  0  0
    3.1870   -2.4910   -0.2820 C   0  0  0  0  0  0  0  0  0  0  0  0
    2.2870   -2.2740   -1.4650 C   0  0  0  0  0  0  0  0  0  0  0  0
    0.9220   -2.5790   -0.8870 C   0  0  1  0  0  0  0  0  0  0  0  0
    0.6940   -4.0410   -0.6790 C   0  0  0  0  0  0  0  0  0  0  0  0
   -0.0900   -4.6770   -1.7270 N   0  0  0  0  0  0  0  0  0  0  0  0
    0.6590   -5.0460   -2.9440 C   0  0  0  0  0  0  0  0  0  0  0  0
   -1.4850   -4.9440   -1.6230 C   0  0  0  0  0  0  0  0  0  0  0  0
   -1.7390   -6.1010   -2.2150 O   0  0  0  0  0  0  0  0  0  0  0  0
   -2.5870   -4.2000   -1.0110 C   0  0  0  0  0  0  0  0  0  0  0  0
   -3.4190   -5.1080   -0.2990 C   0  0  0  0  0  0  0  0  0  0  0  0
   -4.5360   -4.7430    0.3880 C   0  0  0  0  0  0  0  0  0  0  0  0
   -4.8330   -3.4060    0.3600 C   0  0  0  0  0  0  0  0  0  0  0  0
   -6.0660   -2.9690    1.1260 C   0  0  0  0  0  0  0  0  0  0  0  0
   -4.0430   -2.4570   -0.3330 C   0  0  0  0  0  0  0  0  0  0  0  0
   -2.9160   -2.8640   -1.0190 C   0  0  0  0  0  0  0  0  0  0  0  0
   -4.6170   -1.0830   -0.1910 C   0  0  0  0  0  0  0  0  0  0  0  0
   -3.8500   -0.2360    0.8390 C   0  0  0  0  0  0  0  0  0  0  0  0
   -4.5830    0.9400    1.1920 N   0  0  0  0  0  0  0  0  0  0  0  0
   -5.0790    1.6650    0.0410 C   0  0  0  0  0  0  0  0  0  0  0  0
   -5.2130    3.1040    0.3390 C   0  0  0  0  0  0  0  0  0  0  0  0
   -5.9600    3.4350    1.3040 O   0  0  0  0  0  0  0  0  0  0  0  0
   -4.5450    4.1050   -0.4090 N   0  0  0  0  0  0  0  0  0  0  0  0
   -3.1900    3.9090   -0.8770 C   0  0  0  0  0  0  0  0  0  0  0  0
    1.0340   -1.8970    0.3530 O   0  0  0  0  0  0  0  0  0  0  0  0
  1  2  1  0
  3  2  1  6
  3  4  1  0
  3 45  1  0
  4  5  1  0
  5  6  1  0
  6  7  1  0
  7  8  2  0
  7  9  1  0
  9 10  1  0
  9 18  2  0
 10 11  2  0
 11 12  1  0
 12 13  1  0
 12 17  2  0
 13 14  1  0
 14 15  1  6
 14 16  1  0
 17 18  1  0
 17 19  1  0
 19 20  1  0
 20 21  2  0
 20 22  1  0
 22 23  1  6
 22 46  1  0
 23 24  1  0
 25 24  1  6
 25 26  1  0
 25 46  1  0
 26 27  1  0
 27 28  1  0
 27 29  1  0
 29 30  2  0
 29 31  1  0
 31 32  1  0
 31 37  2  0
 32 33  2  0
 33 34  1  0
 34 35  1  0
 34 36  2  0
 36 37  1  0
 36 38  1  0
 38 39  1  0
 39 40  1  0
 40 41  1  0
 41 42  1  0
 42 43  2  0
 42 44  1  0
 44 45  1  0
M  CHG  1  40   1
M  END
