
     RDKit          3D

 46 49  0  0  0  0  0  0  0  0999 V2000
    4.7520    3.0650   -2.0730 C   0  0  0  0  0  0  0  0  0  0  0  0
    5.7170    2.3000   -2.0430 C   0  0  0  0  0  0  0  0  0  0  0  0
    6.9690    2.4030   -2.3620 O   0  0  0  0  0  0  0  0  0  0  0  0
    5.3130    0.6550   -1.4270 C   0  0  0  0  0  0  0  0  0  0  0  0
    4.0170    1.0210   -1.4610 C   0  0  0  0  0  0  0  0  0  0  0  0
    3.0870    0.4850   -0.5210 C   0  0  0  0  0  0  0  0  0  0  0  0
    3.6530   -0.4540    0.3740 C   0  0  0  0  0  0  0  0  0  0  0  0
    3.2120   -1.4770    1.0790 C   0  0  0  0  0  0  0  0  0  0  0  0
    4.2110   -2.2110    1.9230 C   0  0  0  0  0  0  0  0  0  0  0  0
    3.8220   -3.1970    2.7050 C   0  0  0  0  0  0  0  0  0  0  0  0
    4.9710   -3.8590    3.4950 C   0  0  0  0  0  0  0  0  0  0  0  0
    1.8740   -2.0670    1.0990 C   0  0  1  0  0  0  0  0  0  0  0  0
    0.8840   -1.1300    0.8100 O   0  0  0  0  0  0  0  0  0  0  0  0
    1.7450   -3.3140    0.3050 C   0  0  0  0  0  0  0  0  0  0  0  0
    1.2030   -3.4080   -0.8750 C   0  0  0  0  0  0  0  0  0  0  0  0
    0.6050   -2.4000   -1.7010 C   0  0  0  0  0  0  0  0  0  0  0  0
    1.1700   -2.2260   -2.8750 O   0  0  0  0  0  0  0  0  0  0  0  0
   -0.4700   -1.5550   -1.5010 N   0  0  0  0  0  0  0  0  0  0  0  0
   -1.7160   -1.7700   -0.8290 C   0  0  2  0  0  0  0  0  0  0  0  0
   -1.9030   -3.1900   -0.3060 C   0  0  0  0  0  0  0  0  0  0  0  0
   -3.4480   -3.2640   -0.2910 C   0  0  0  0  0  0  0  0  0  0  0  0
   -3.7090   -2.7240   -1.6680 C   0  0  1  0  0  0  0  0  0  0  0  0
   -5.0270   -2.5490   -1.9580 O   0  0  0  0  0  0  0  0  0  0  0  0
   -5.1490   -1.5950   -2.9660 C   0  0  0  0  0  0  0  0  0  0  0  0
   -4.8400   -0.2690   -2.3140 C   0  0  0  0  0  0  0  0  0  0  0  0
   -3.5140   -0.2570   -1.6730 N   0  0  0  0  0  0  0  0  0  0  0  0
   -3.1440    0.9740   -1.1020 C   0  0  0  0  0  0  0  0  0  0  0  0
   -3.0320    1.9990   -1.9210 O   0  0  0  0  0  0  0  0  0  0  0  0
   -2.8280    1.3980    0.2850 C   0  0  2  0  0  0  0  0  0  0  0  0
   -3.3750    2.6590    0.5490 O   0  0  0  0  0  0  0  0  0  0  0  0
   -4.5170    3.1190    1.0830 C   0  0  0  0  0  0  0  0  0  0  0  0
   -5.5950    2.3540    1.4330 C   0  0  0  0  0  0  0  0  0  0  0  0
   -6.7530    2.9290    1.9880 C   0  0  0  0  0  0  0  0  0  0  0  0
   -6.8180    4.2990    2.1880 C   0  0  0  0  0  0  0  0  0  0  0  0
   -5.7350    5.0470    1.8350 C   0  0  0  0  0  0  0  0  0  0  0  0
   -4.5980    4.5430    1.3020 C   0  0  0  0  0  0  0  0  0  0  0  0
   -1.3410    1.6440    0.3700 C   0  0  0  0  0  0  0  0  0  0  0  0
   -0.8380    1.7790    1.7210 N   0  0  1  0  0  0  0  0  0  0  0  0
   -1.3870    0.8350    2.6540 C   0  0  0  0  0  0  0  0  0  0  0  0
    0.5870    1.8380    1.6630 C   0  0  0  0  0  0  0  0  0  0  0  0
    1.1520    1.9840    0.3090 C   0  0  0  0  0  0  0  0  0  0  0  0
    0.9430    3.2320   -0.1100 O   0  0  0  0  0  0  0  0  0  0  0  0
    1.8180    1.1470   -0.5750 N   0  0  0  0  0  0  0  0  0  0  0  0
   -2.8330   -1.5020   -1.7890 C   0  0  1  0  0  0  0  0  0  0  0  0
    6.5310    0.3530   -1.4350 C   0  0  0  0  0  0  0  0  0  0  0  0
    7.9040    0.6390   -1.6650 C   0  0  0  0  0  0  0  0  0  0  0  0
  1  2  2  0
  2  3  1  0
  2  4  1  0
  4  5  1  0
  4 45  2  3
  5  6  2  3
  6  7  1  0
  6 43  1  0
  7  8  2  0
  8  9  1  0
  8 12  1  0
  9 10  2  3
 10 11  1  0
 12 13  1  6
 12 14  1  0
 14 15  2  0
 15 16  1  0
 16 17  2  0
 16 18  1  0
 18 19  1  0
 19 20  1  6
 19 44  1  0
 20 21  1  0
 22 21  1  1
 22 23  1  0
 22 44  1  0
 23 24  1  0
 24 25  1  0
 25 26  1  0
 26 27  1  0
 44 26  1  1
 27 28  2  0
 27 29  1  0
 29 30  1  6
 29 37  1  0
 30 31  1  0
 31 32  2  0
 31 36  1  0
 32 33  1  0
 33 34  2  0
 34 35  1  0
 35 36  2  0
 37 38  1  0
 38 39  1  1
 38 40  1  0
 40 41  1  0
 41 42  2  0
 41 43  1  0
 45 46  1  0
M  CHG  1  38   1
M  END
