
     RDKit          3D

 46 51  0  0  0  0  0  0  0  0999 V2000
    1.3100    5.2950    0.1230 C   0  0  0  0  0  0  0  0  0  0  0  0
    1.6840    4.0220   -0.3740 O   0  0  0  0  0  0  0  0  0  0  0  0
    1.6230    2.9090    0.4540 C   0  0  0  0  0  0  0  0  0  0  0  0
    2.7900    2.6210    1.1880 C   0  0  0  0  0  0  0  0  0  0  0  0
    3.8950    3.3910    1.0780 O   0  0  0  0  0  0  0  0  0  0  0  0
    5.1470    3.3680    1.6040 C   0  0  0  0  0  0  0  0  0  0  0  0
    5.9380    2.1730    1.2040 C   0  0  2  0  0  0  0  0  0  0  0  0
    7.3870    2.3290    1.7130 C   0  0  0  0  0  0  0  0  0  0  0  0
    8.2150    0.7710    1.2540 S   0  0  0  0  0  0  0  0  0  0  0  0
    7.3970    0.1280   -0.1610 C   0  0  0  0  0  0  0  0  0  0  0  0
    7.7850   -0.9050   -0.8250 C   0  0  0  0  0  0  0  0  0  0  0  0
    8.9650   -1.6980   -0.5030 C   0  0  0  0  0  0  0  0  0  0  0  0
    9.3610   -2.7850   -1.2150 C   0  0  0  0  0  0  0  0  0  0  0  0
    8.6330   -3.2950   -2.4120 C   0  0  0  0  0  0  0  0  0  0  0  0
   10.5730   -3.3700   -0.6540 C   0  0  0  0  0  0  0  0  0  0  0  0
   10.8720   -2.5050    0.4910 C   0  0  0  0  0  0  0  0  0  0  0  0
    9.9260   -1.5430    0.5580 C   0  0  0  0  0  0  0  0  0  0  0  0
    6.1370    0.8220   -0.6570 C   0  0  0  0  0  0  0  0  0  0  0  0
    6.0710    2.1190   -0.1860 O   0  0  0  0  0  0  0  0  0  0  0  0
    2.7350    1.5260    2.0060 C   0  0  0  0  0  0  0  0  0  0  0  0
    1.6010    0.7220    2.1250 C   0  0  0  0  0  0  0  0  0  0  0  0
    0.4670    1.0110    1.4030 C   0  0  0  0  0  0  0  0  0  0  0  0
   -0.7410    0.1850    1.5080 C   0  0  0  0  0  0  0  0  0  0  0  0
   -0.7070   -0.7980    2.2770 O   0  0  0  0  0  0  0  0  0  0  0  0
   -1.8830    0.4800    0.7830 O   0  0  0  0  0  0  0  0  0  0  0  0
   -3.0590   -0.3150    0.8790 C   0  0  1  0  0  0  0  0  0  0  0  0
   -4.1550    0.5910    1.3740 C   0  0  0  0  0  0  0  0  0  0  0  0
   -4.7990    1.3560    0.2360 C   0  0  0  0  0  0  0  0  0  0  0  0
   -5.5670    0.3810   -0.6730 C   0  0  0  0  0  0  0  0  0  0  0  0
   -4.8500   -0.8830   -0.6370 N   0  0  0  0  0  0  0  0  0  0  0  0
   -5.5190   -2.1140   -0.7310 C   0  0  0  0  0  0  0  0  0  0  0  0
   -4.8570   -3.1890   -0.6970 O   0  0  0  0  0  0  0  0  0  0  0  0
   -6.9700   -2.1210   -0.8680 C   0  0  0  0  0  0  0  0  0  0  0  0
   -7.7870   -2.1560    0.2490 C   0  0  0  0  0  0  0  0  0  0  0  0
   -9.1660   -2.1640    0.1290 C   0  0  0  0  0  0  0  0  0  0  0  0
   -9.7070   -2.1360   -1.1340 C   0  0  0  0  0  0  0  0  0  0  0  0
   -8.9040   -2.1010   -2.2220 N   0  0  0  0  0  0  0  0  0  0  0  0
   -7.5510   -2.0930   -2.1110 C   0  0  0  0  0  0  0  0  0  0  0  0
   -6.8100   -2.0610   -3.1230 O   0  0  0  0  0  0  0  0  0  0  0  0
  -11.1900   -2.1490   -1.0630 C   0  0  0  0  0  0  0  0  0  0  0  0
  -11.5160   -2.0670    0.3950 C   0  0  0  0  0  0  0  0  0  0  0  0
  -10.2280   -2.2000    1.1650 C   0  0  0  0  0  0  0  0  0  0  0  0
   -3.4170   -0.8070   -0.5000 C   0  0  0  0  0  0  0  0  0  0  0  0
    0.5150    2.1130    0.5770 C   0  0  0  0  0  0  0  0  0  0  0  0
   -0.6220    2.4240   -0.1620 O   0  0  0  0  0  0  0  0  0  0  0  0
   -0.8170    1.8940   -1.4610 C   0  0  0  0  0  0  0  0  0  0  0  0
  1  2  1  0
  2  3  1  0
  3  4  2  0
  3 44  1  0
  4  5  1  0
  4 20  1  0
  5  6  1  0
  7  6  1  6
  7  8  1  0
  7 19  1  0
  8  9  1  0
  9 10  1  0
 10 11  2  3
 10 18  1  0
 11 12  1  0
 12 13  2  0
 12 17  1  0
 13 14  1  0
 13 15  1  0
 15 16  1  0
 16 17  2  0
 18 19  1  0
 20 21  2  0
 21 22  1  0
 22 23  1  0
 22 44  2  0
 23 24  2  0
 23 25  1  0
 26 25  1  6
 26 27  1  0
 26 43  1  0
 27 28  1  0
 28 29  1  0
 29 30  1  0
 30 31  1  0
 30 43  1  0
 31 32  2  0
 31 33  1  0
 33 34  2  0
 33 38  1  0
 34 35  1  0
 35 36  2  0
 35 42  1  0
 36 37  1  0
 36 40  1  0
 37 38  1  0
 38 39  2  0
 40 41  1  0
 41 42  1  0
 44 45  1  0
 45 46  1  0
M  END
