
     RDKit          3D

 46 51  0  0  0  0  0  0  0  0999 V2000
   -9.0420   -2.0130   -2.5850 C   0  0  0  0  0  0  0  0  0  0  0  0
   -8.5690   -1.9150   -1.1620 C   0  0  0  0  0  0  0  0  0  0  0  0
   -7.8510   -0.6910   -0.9350 O   0  0  0  0  0  0  0  0  0  0  0  0
   -7.3850   -0.5610    0.3980 C   0  0  0  0  0  0  0  0  0  0  0  0
   -8.1750    0.0320    1.2980 C   0  0  0  0  0  0  0  0  0  0  0  0
   -9.5630    0.6190    1.1160 C   0  0  0  0  0  0  0  0  0  0  0  0
  -10.1250    1.1290    2.1010 O   0  0  0  0  0  0  0  0  0  0  0  0
  -10.1750    0.5860   -0.0960 O   0  0  0  0  0  0  0  0  0  0  0  0
  -11.4640    1.1060   -0.3620 C   0  0  0  0  0  0  0  0  0  0  0  0
   -7.2930    0.0230    2.8260 S   0  0  0  0  0  0  0  0  0  0  0  0
   -5.8870   -0.7970    2.1390 C   0  0  0  0  0  0  0  0  0  0  0  0
   -6.1920   -0.9900    0.8470 C   0  0  0  0  0  0  0  0  0  0  0  0
   -5.0950   -1.6930    0.0790 C   0  0  0  0  0  0  0  0  0  0  0  0
   -3.7470   -1.2540    0.4630 C   0  0  1  0  0  0  0  0  0  0  0  0
   -3.1380   -0.3070   -0.5440 C   0  0  0  0  0  0  0  0  0  0  0  0
   -3.8240    0.0260   -1.5430 O   0  0  0  0  0  0  0  0  0  0  0  0
   -1.8410    0.2210   -0.4210 N   0  0  0  0  0  0  0  0  0  0  0  0
   -1.2550    1.1430   -1.4030 C   0  0  1  0  0  0  0  0  0  0  0  0
   -1.0120    2.4510   -0.7200 C   0  0  0  0  0  0  0  0  0  0  0  0
    0.3770    2.7180   -0.2710 C   0  0  0  0  0  0  0  0  0  0  0  0
    1.2770    1.5330   -0.1720 C   0  0  2  0  0  0  0  0  0  0  0  0
    2.6230    1.8930    0.0940 O   0  0  0  0  0  0  0  0  0  0  0  0
    3.2750    1.4350    1.2330 C   0  0  0  0  0  0  0  0  0  0  0  0
    2.6190    0.6920    2.0090 O   0  0  0  0  0  0  0  0  0  0  0  0
    4.6950    1.8060    1.5230 C   0  0  0  0  0  0  0  0  0  0  0  0
    5.5710    0.6460    1.1060 C   0  0  0  0  0  0  0  0  0  0  0  0
    7.0080    0.8820    1.3380 C   0  0  0  0  0  0  0  0  0  0  0  0
    7.3400    1.9730    1.8290 O   0  0  0  0  0  0  0  0  0  0  0  0
    7.9430   -0.1050    1.0080 N   0  0  0  0  0  0  0  0  0  0  0  0
    7.4820   -1.3970    0.5170 C   0  0  0  0  0  0  0  0  0  0  0  0
    8.5080   -2.4790    0.6860 C   0  0  0  0  0  0  0  0  0  0  0  0
    9.5390   -2.1490    1.6080 O   0  0  0  0  0  0  0  0  0  0  0  0
   10.1850   -0.9240    1.4800 C   0  0  0  0  0  0  0  0  0  0  0  0
   11.5320   -0.7140    1.6360 C   0  0  0  0  0  0  0  0  0  0  0  0
   12.0710    0.5620    1.4810 C   0  0  0  0  0  0  0  0  0  0  0  0
   11.2400    1.5970    1.1730 C   0  0  0  0  0  0  0  0  0  0  0  0
    9.8940    1.3780    1.0180 C   0  0  0  0  0  0  0  0  0  0  0  0
    9.3350    0.1400    1.1640 C   0  0  0  0  0  0  0  0  0  0  0  0
    1.1810    0.7540   -1.4250 C   0  0  0  0  0  0  0  0  0  0  0  0
    2.3500    0.2310   -1.9630 C   0  0  0  0  0  0  0  0  0  0  0  0
    2.2630   -0.4860   -3.1260 C   0  0  0  0  0  0  0  0  0  0  0  0
    1.0540   -0.6810   -3.7370 C   0  0  0  0  0  0  0  0  0  0  0  0
   -0.1080   -0.1450   -3.1750 C   0  0  0  0  0  0  0  0  0  0  0  0
   -0.0400    0.5790   -2.0060 C   0  0  0  0  0  0  0  0  0  0  0  0
   -3.5480   -0.6210    1.7890 C   0  0  0  0  0  0  0  0  0  0  0  0
   -4.5630   -1.2390    2.7410 C   0  0  0  0  0  0  0  0  0  0  0  0
  1  2  1  0
  2  3  1  0
  3  4  1  0
  4  5  2  0
  4 12  1  0
  5  6  1  0
  5 10  1  0
  6  7  2  0
  6  8  1  0
  8  9  1  0
 10 11  1  0
 11 12  2  0
 11 46  1  0
 12 13  1  0
 13 14  1  0
 14 15  1  6
 14 45  1  0
 15 16  2  0
 15 17  1  0
 18 17  1  1
 18 19  1  0
 18 44  1  0
 19 20  1  0
 20 21  1  0
 21 22  1  6
 21 39  1  0
 22 23  1  0
 23 24  2  0
 23 25  1  0
 25 26  1  0
 26 27  1  0
 27 28  2  0
 27 29  1  0
 29 30  1  0
 29 38  1  0
 30 31  1  0
 31 32  1  0
 32 33  1  0
 33 34  2  0
 33 38  1  0
 34 35  1  0
 35 36  2  0
 36 37  1  0
 37 38  2  0
 39 40  2  0
 39 44  1  0
 40 41  1  0
 41 42  2  0
 42 43  1  0
 43 44  2  0
 45 46  1  0
M  END
