
     RDKit          3D

 46 51  0  0  0  0  0  0  0  0999 V2000
    7.9560   -3.6150    0.7770 C   0  0  0  0  0  0  0  0  0  0  0  0
    7.7700   -2.1370    0.5790 C   0  0  0  0  0  0  0  0  0  0  0  0
    6.9040   -1.8520   -0.5090 O   0  0  0  0  0  0  0  0  0  0  0  0
    5.6040   -2.3320   -0.4750 C   0  0  0  0  0  0  0  0  0  0  0  0
    5.2570   -3.0080    0.5390 O   0  0  0  0  0  0  0  0  0  0  0  0
    4.7060   -2.0330   -1.6040 C   0  0  0  0  0  0  0  0  0  0  0  0
    4.4650   -0.5930   -1.8650 C   0  0  0  0  0  0  0  0  0  0  0  0
    3.8320    0.1870   -0.7500 C   0  0  2  0  0  0  0  0  0  0  0  0
    2.4960   -0.3720   -0.3780 C   0  0  0  0  0  0  0  0  0  0  0  0
    1.8520    0.3790    0.7280 C   0  0  0  0  0  0  0  0  0  0  0  0
    2.4790    1.3210    1.2630 O   0  0  0  0  0  0  0  0  0  0  0  0
    0.5520    0.0720    1.2070 N   0  0  0  0  0  0  0  0  0  0  0  0
   -0.0130    0.8240    2.2700 C   0  0  0  0  0  0  0  0  0  0  0  0
   -0.8570    1.9680    1.8810 C   0  0  0  0  0  0  0  0  0  0  0  0
   -0.3540    3.1770    1.4620 C   0  0  0  0  0  0  0  0  0  0  0  0
   -1.1620    4.2500    1.1270 C   0  0  0  0  0  0  0  0  0  0  0  0
   -2.5270    4.1160    1.2110 C   0  0  0  0  0  0  0  0  0  0  0  0
   -3.3730    5.1740    0.8830 C   0  0  0  0  0  0  0  0  0  0  0  0
   -4.7360    5.0350    0.9710 C   0  0  0  0  0  0  0  0  0  0  0  0
   -5.3020    3.8490    1.3840 C   0  0  0  0  0  0  0  0  0  0  0  0
   -4.4650    2.8120    1.7050 C   0  0  0  0  0  0  0  0  0  0  0  0
   -5.0170    1.5100    2.1520 C   0  0  0  0  0  0  0  0  0  0  0  0
   -3.0800    2.9230    1.6250 C   0  0  0  0  0  0  0  0  0  0  0  0
   -2.2540    1.8790    1.9510 C   0  0  0  0  0  0  0  0  0  0  0  0
   -0.1110   -1.0750    0.5840 C   0  0  1  0  0  0  0  0  0  0  0  0
   -0.4640   -2.1060    1.6160 C   0  0  0  0  0  0  0  0  0  0  0  0
   -1.6690   -3.0700    0.6270 S   0  0  0  0  0  0  0  0  0  0  0  0
   -2.2250   -1.6710   -0.3450 C   0  0  0  0  0  0  0  0  0  0  0  0
   -1.2700   -0.7120   -0.2340 C   0  0  0  0  0  0  0  0  0  0  0  0
   -1.5350    0.4750   -0.9430 C   0  0  0  0  0  0  0  0  0  0  0  0
   -2.6840    0.6230   -1.6840 C   0  0  0  0  0  0  0  0  0  0  0  0
   -3.6070   -0.3720   -1.7590 C   0  0  0  0  0  0  0  0  0  0  0  0
   -3.3870   -1.5560   -1.0770 C   0  0  0  0  0  0  0  0  0  0  0  0
   -4.1600   -2.7030   -0.9940 O   0  0  0  0  0  0  0  0  0  0  0  0
   -5.1910   -3.0720   -1.8910 C   0  0  1  0  0  0  0  0  0  0  0  0
   -5.7990   -4.3930   -1.4750 C   0  0  0  0  0  0  0  0  0  0  0  0
   -6.1800   -1.9430   -1.9420 C   0  0  0  0  0  0  0  0  0  0  0  0
   -5.8030   -0.8950   -2.9640 C   0  0  0  0  0  0  0  0  0  0  0  0
   -4.7190   -0.1000   -2.5360 O   0  0  0  0  0  0  0  0  0  0  0  0
    3.6780    1.5580   -1.2910 N   0  0  0  0  0  0  0  0  0  0  0  0
    4.7720    2.4230   -1.3340 C   0  0  0  0  0  0  0  0  0  0  0  0
    4.7440    3.4350   -2.0910 O   0  0  0  0  0  0  0  0  0  0  0  0
    5.9720    2.2000   -0.5210 C   0  0  0  0  0  0  0  0  0  0  0  0
    5.9480    0.9950    0.2320 O   0  0  0  0  0  0  0  0  0  0  0  0
    4.7620    0.2720    0.3930 C   0  0  0  0  0  0  0  0  0  0  0  0
    4.5460   -0.2630    1.4940 O   0  0  0  0  0  0  0  0  0  0  0  0
  1  2  1  0
  2  3  1  0
  3  4  1  0
  4  5  2  0
  4  6  1  0
  6  7  1  0
  8  7  1  6
  8  9  1  0
  8 40  1  0
  8 45  1  0
  9 10  1  0
 10 11  2  0
 10 12  1  0
 12 13  1  0
 25 12  1  1
 13 14  1  0
 14 15  2  0
 14 24  1  0
 15 16  1  0
 16 17  2  0
 17 18  1  0
 17 23  1  0
 18 19  2  0
 19 20  1  0
 20 21  2  0
 21 22  1  0
 21 23  1  0
 23 24  2  0
 25 26  1  0
 25 29  1  0
 26 27  1  0
 27 28  1  0
 28 29  2  0
 28 33  1  0
 29 30  1  0
 30 31  2  0
 31 32  1  0
 32 33  2  0
 32 39  1  0
 33 34  1  0
 34 35  1  0
 35 36  1  1
 35 37  1  0
 37 38  1  0
 38 39  1  0
 40 41  1  0
 41 42  2  0
 41 43  1  0
 43 44  1  0
 44 45  1  0
 45 46  2  0
M  END
