
     RDKit          3D

 46 49  0  0  0  0  0  0  0  0999 V2000
    3.7950   -1.8440   -1.8070 C   0  0  0  0  0  0  0  0  0  0  0  0
    5.0410   -2.2910   -1.0970 C   0  0  0  0  0  0  0  0  0  0  0  0
    6.1780   -2.2830   -1.9140 C   0  0  0  0  0  0  0  0  0  0  0  0
    7.3660   -2.7210   -1.4220 C   0  0  0  0  0  0  0  0  0  0  0  0
    7.4270   -3.1690   -0.1170 C   0  0  0  0  0  0  0  0  0  0  0  0
    6.3050   -3.1690    0.6670 C   0  0  0  0  0  0  0  0  0  0  0  0
    6.4310   -3.6640    2.0690 C   0  0  0  0  0  0  0  0  0  0  0  0
    5.0460   -2.7220    0.2020 C   0  0  0  0  0  0  0  0  0  0  0  0
    3.9970   -2.7320    0.9920 O   0  0  0  0  0  0  0  0  0  0  0  0
    3.3060   -2.1600    1.9660 C   0  0  0  0  0  0  0  0  0  0  0  0
    2.8070   -0.7850    1.9500 C   0  0  0  0  0  0  0  0  0  0  0  0
    1.9800   -0.4280    2.8940 O   0  0  0  0  0  0  0  0  0  0  0  0
    3.1810    0.1550    0.9750 N   0  0  0  0  0  0  0  0  0  0  0  0
    2.6230    1.5010    1.0450 C   0  0  1  0  0  0  0  0  0  0  0  0
    3.6390    2.5630    0.8700 C   0  0  0  0  0  0  0  0  0  0  0  0
    3.0220    3.9030    0.9610 C   0  0  0  0  0  0  0  0  0  0  0  0
    2.8490    4.5630    2.1640 C   0  0  0  0  0  0  0  0  0  0  0  0
    2.2860    5.8160    2.2150 C   0  0  0  0  0  0  0  0  0  0  0  0
    1.8750    6.4530    1.0600 C   0  0  0  0  0  0  0  0  0  0  0  0
    2.0380    5.8160   -0.1300 C   0  0  0  0  0  0  0  0  0  0  0  0
    2.6100    4.5450   -0.1810 C   0  0  0  0  0  0  0  0  0  0  0  0
    1.5540    1.6590   -0.0540 C   0  0  1  0  0  0  0  0  0  0  0  0
    2.0800    1.4660   -1.3230 O   0  0  0  0  0  0  0  0  0  0  0  0
    0.4440    0.6800    0.1580 C   0  0  0  0  0  0  0  0  0  0  0  0
   -0.5960    0.8350   -0.9390 C   0  0  2  0  0  0  0  0  0  0  0  0
   -1.1970    2.1820   -0.9930 C   0  0  0  0  0  0  0  0  0  0  0  0
   -2.1700    2.2880   -2.0890 C   0  0  0  0  0  0  0  0  0  0  0  0
   -3.5060    2.1390   -1.8620 C   0  0  0  0  0  0  0  0  0  0  0  0
   -4.4420    2.2190   -2.9010 C   0  0  0  0  0  0  0  0  0  0  0  0
   -4.0110    2.4560   -4.1990 C   0  0  0  0  0  0  0  0  0  0  0  0
   -2.6490    2.6020   -4.3930 C   0  0  0  0  0  0  0  0  0  0  0  0
   -1.7170    2.5280   -3.3900 C   0  0  0  0  0  0  0  0  0  0  0  0
   -1.5030   -0.2600   -0.7830 N   0  0  0  0  0  0  0  0  0  0  0  0
   -2.4850   -0.3290    0.2290 C   0  0  0  0  0  0  0  0  0  0  0  0
   -2.6250    0.6320    1.0630 O   0  0  0  0  0  0  0  0  0  0  0  0
   -3.3480   -1.5180    0.3300 C   0  0  2  0  0  0  0  0  0  0  0  0
   -3.7380   -2.0840   -0.9810 C   0  0  2  0  0  0  0  0  0  0  0  0
   -4.4890   -1.2420   -1.9340 C   0  0  0  0  0  0  0  0  0  0  0  0
   -4.6110   -3.3350   -0.7320 C   0  0  0  0  0  0  0  0  0  0  0  0
   -4.3740   -1.4450    1.3300 N   0  0  0  0  0  0  0  0  0  0  0  0
   -4.2780   -2.3510    2.4920 C   0  0  0  0  0  0  0  0  0  0  0  0
   -5.6010   -3.0410    2.7370 C   0  0  0  0  0  0  0  0  0  0  0  0
   -6.6520   -2.0200    3.0270 C   0  0  0  0  0  0  0  0  0  0  0  0
   -6.7000   -1.0560    1.9330 N   0  0  0  0  0  0  0  0  0  0  0  0
   -5.4890   -0.5910    1.3230 C   0  0  0  0  0  0  0  0  0  0  0  0
   -5.3980    0.5200    0.8000 O   0  0  0  0  0  0  0  0  0  0  0  0
  1  2  1  0
  2  3  2  0
  2  8  1  0
  3  4  1  0
  4  5  2  0
  5  6  1  0
  6  7  1  0
  6  8  2  0
  8  9  1  0
  9 10  1  0
 10 11  1  0
 11 12  2  0
 11 13  1  0
 13 14  1  0
 14 15  1  6
 14 22  1  0
 15 16  1  0
 16 17  2  0
 16 21  1  0
 17 18  1  0
 18 19  2  0
 19 20  1  0
 20 21  2  0
 22 23  1  6
 22 24  1  0
 25 24  1  1
 25 26  1  0
 25 33  1  0
 26 27  1  0
 27 28  2  0
 27 32  1  0
 28 29  1  0
 29 30  2  0
 30 31  1  0
 31 32  2  0
 33 34  1  0
 34 35  2  0
 34 36  1  0
 36 37  1  0
 36 40  1  6
 37 38  1  6
 37 39  1  0
 40 41  1  0
 40 45  1  0
 41 42  1  0
 42 43  1  0
 43 44  1  0
 44 45  1  0
 45 46  2  0
M  END
