
     RDKit          3D

 46 51  0  0  0  0  0  0  0  0999 V2000
   -8.9330   -0.8220   -2.7450 C   0  0  0  0  0  0  0  0  0  0  0  0
   -8.4610   -0.6080   -1.3470 C   0  0  0  0  0  0  0  0  0  0  0  0
   -7.8580    0.6860   -1.1840 O   0  0  0  0  0  0  0  0  0  0  0  0
   -7.3620    1.0230    0.1190 C   0  0  0  0  0  0  0  0  0  0  0  0
   -8.1770    1.6240    0.9810 C   0  0  0  0  0  0  0  0  0  0  0  0
   -9.5760    2.0540    0.8910 C   0  0  0  0  0  0  0  0  0  0  0  0
  -10.2000    1.8560   -0.1580 O   0  0  0  0  0  0  0  0  0  0  0  0
  -10.2010    2.6700    1.9550 O   0  0  0  0  0  0  0  0  0  0  0  0
  -11.5450    3.1090    1.9360 C   0  0  0  0  0  0  0  0  0  0  0  0
   -7.1510    1.8440    2.4350 S   0  0  0  0  0  0  0  0  0  0  0  0
   -5.7310    1.1100    1.7510 C   0  0  0  0  0  0  0  0  0  0  0  0
   -6.0850    0.7460    0.4980 C   0  0  0  0  0  0  0  0  0  0  0  0
   -4.9640    0.0780   -0.2900 C   0  0  0  0  0  0  0  0  0  0  0  0
   -4.2900   -0.9280    0.5520 C   0  0  1  0  0  0  0  0  0  0  0  0
   -2.9340   -1.2750   -0.0160 C   0  0  0  0  0  0  0  0  0  0  0  0
   -2.5910   -2.4530   -0.2890 O   0  0  0  0  0  0  0  0  0  0  0  0
   -1.9860   -0.2450   -0.2600 N   0  0  0  0  0  0  0  0  0  0  0  0
   -0.6470   -0.5240   -0.8050 C   0  0  1  0  0  0  0  0  0  0  0  0
   -0.5570    0.1150   -2.1530 C   0  0  0  0  0  0  0  0  0  0  0  0
    0.7970    0.4310   -2.6590 C   0  0  0  0  0  0  0  0  0  0  0  0
    1.9290    0.3750   -1.7300 C   0  0  2  0  0  0  0  0  0  0  0  0
    2.8240   -0.6960   -1.9080 O   0  0  0  0  0  0  0  0  0  0  0  0
    4.1550   -0.6190   -2.1970 C   0  0  0  0  0  0  0  0  0  0  0  0
    4.6470    0.5050   -2.3240 O   0  0  0  0  0  0  0  0  0  0  0  0
    4.9210   -1.8630   -2.3410 C   0  0  0  0  0  0  0  0  0  0  0  0
    5.8640   -2.1950   -1.2440 C   0  0  0  0  0  0  0  0  0  0  0  0
    6.9270   -1.1780   -1.1210 C   0  0  0  0  0  0  0  0  0  0  0  0
    7.0080   -0.2920   -1.9910 O   0  0  0  0  0  0  0  0  0  0  0  0
    7.8360   -1.2200   -0.0290 N   0  0  0  0  0  0  0  0  0  0  0  0
    7.7560   -2.1830    1.0560 C   0  0  0  0  0  0  0  0  0  0  0  0
    7.8270   -1.4660    2.3800 C   0  0  0  0  0  0  0  0  0  0  0  0
    8.6040   -0.3020    2.3790 O   0  0  0  0  0  0  0  0  0  0  0  0
    9.2900    0.2080    1.3040 C   0  0  0  0  0  0  0  0  0  0  0  0
   10.3040    1.1250    1.4010 C   0  0  0  0  0  0  0  0  0  0  0  0
   10.9190    1.5650    0.2550 C   0  0  0  0  0  0  0  0  0  0  0  0
   10.5390    1.1030   -1.0010 C   0  0  0  0  0  0  0  0  0  0  0  0
    9.5090    0.1700   -1.1220 C   0  0  0  0  0  0  0  0  0  0  0  0
    8.8990   -0.2620    0.0490 C   0  0  0  0  0  0  0  0  0  0  0  0
    1.5600    0.3710   -0.2850 C   0  0  0  0  0  0  0  0  0  0  0  0
    2.5360    0.8290    0.6090 C   0  0  0  0  0  0  0  0  0  0  0  0
    2.2280    0.8330    1.9530 C   0  0  0  0  0  0  0  0  0  0  0  0
    0.9910    0.3980    2.3940 C   0  0  0  0  0  0  0  0  0  0  0  0
    0.0270   -0.0550    1.5100 C   0  0  0  0  0  0  0  0  0  0  0  0
    0.3390   -0.0570    0.1740 C   0  0  0  0  0  0  0  0  0  0  0  0
   -4.1690   -0.6520    2.0060 C   0  0  0  0  0  0  0  0  0  0  0  0
   -4.3260    0.8440    2.2930 C   0  0  0  0  0  0  0  0  0  0  0  0
  1  2  1  0
  2  3  1  0
  3  4  1  0
  4  5  2  0
  4 12  1  0
  5  6  1  0
  5 10  1  0
  6  7  2  0
  6  8  1  0
  8  9  1  0
 10 11  1  0
 11 12  2  0
 11 46  1  0
 12 13  1  0
 13 14  1  0
 14 15  1  6
 14 45  1  0
 15 16  2  0
 15 17  1  0
 18 17  1  1
 18 19  1  0
 18 44  1  0
 19 20  1  0
 20 21  1  0
 21 22  1  6
 21 39  1  0
 22 23  1  0
 23 24  2  0
 23 25  1  0
 25 26  1  0
 26 27  1  0
 27 28  2  0
 27 29  1  0
 29 30  1  0
 29 38  1  0
 30 31  1  0
 31 32  1  0
 32 33  1  0
 33 34  2  0
 33 38  1  0
 34 35  1  0
 35 36  2  0
 36 37  1  0
 37 38  2  0
 39 40  2  0
 39 44  1  0
 40 41  1  0
 41 42  2  0
 42 43  1  0
 43 44  2  0
 45 46  1  0
M  END
