
     RDKit          3D

 41 43  0  0  0  0  0  0  0  0999 V2000
   -7.9830    3.8600   -0.2540 C   0  0  0  0  0  0  0  0  0  0  0  0
   -7.0810    3.0830    0.7290 C   0  0  0  0  0  0  0  0  0  0  0  0
   -7.3420    1.6950    0.6150 N   0  0  0  0  0  0  0  0  0  0  0  0
   -8.5890    1.2050    1.0400 C   0  0  0  0  0  0  0  0  0  0  0  0
   -6.5260    0.9100   -0.2080 C   0  0  0  0  0  0  0  0  0  0  0  0
   -5.1080    0.7620    0.1850 C   0  0  0  0  0  0  0  0  0  0  0  0
   -4.6030    1.3070    1.3400 C   0  0  0  0  0  0  0  0  0  0  0  0
   -3.2880    1.1310    1.6900 C   0  0  0  0  0  0  0  0  0  0  0  0
   -2.3970    0.4010    0.9100 C   0  0  0  0  0  0  0  0  0  0  0  0
   -1.0560    0.2250    1.3150 N   0  0  0  0  0  0  0  0  0  0  0  0
    0.0210   -0.2080    0.5290 C   0  0  0  0  0  0  0  0  0  0  0  0
   -0.1330   -0.4850   -0.6790 O   0  0  0  0  0  0  0  0  0  0  0  0
    1.3760   -0.3330    1.1820 C   0  0  2  0  0  0  0  0  0  0  0  0
    1.7330    1.0070    1.7790 C   0  0  0  0  0  0  0  0  0  0  0  0
    2.7230    1.7300    0.9100 C   0  0  1  0  0  0  0  0  0  0  0  0
    3.0370    3.0790    1.4370 C   0  0  0  0  0  0  0  0  0  0  0  0
    3.6300    3.1580    2.7890 C   0  0  0  0  0  0  0  0  0  0  0  0
    2.8710    2.6690    3.8320 O   0  0  0  0  0  0  0  0  0  0  0  0
    3.9340    0.8290    0.8360 C   0  0  0  0  0  0  0  0  0  0  0  0
    5.0470    1.3020    1.0270 O   0  0  0  0  0  0  0  0  0  0  0  0
    3.7640   -0.5510    0.5410 N   0  0  0  0  0  0  0  0  0  0  0  0
    4.7700   -1.5290    0.5040 C   0  0  0  0  0  0  0  0  0  0  0  0
    5.3920   -1.8620    1.6100 C   0  0  0  0  0  0  0  0  0  0  0  0
    5.2180   -1.3820    2.9370 C   0  0  0  0  0  0  0  0  0  0  0  0
    4.3880   -0.5280    3.2740 O   0  0  0  0  0  0  0  0  0  0  0  0
    6.0460   -1.9010    3.9950 N   0  0  0  0  0  0  0  0  0  0  0  0
    5.9100   -1.4490    5.3630 C   0  0  0  0  0  0  0  0  0  0  0  0
    5.1580   -2.2390   -0.7350 C   0  0  0  0  0  0  0  0  0  0  0  0
    5.7820   -1.4410   -1.8090 C   0  0  2  0  0  0  0  0  0  0  0  0
    4.9130   -0.3570   -2.3210 C   0  0  0  0  0  0  0  0  0  0  0  0
    5.3960   -0.1720   -3.7580 C   0  0  0  0  0  0  0  0  0  0  0  0
    6.3200   -1.3560   -3.9980 C   0  0  0  0  0  0  0  0  0  0  0  0
    5.9490   -2.3050   -2.9960 N   0  0  0  0  0  0  0  0  0  0  0  0
    2.3740   -0.9340    0.2700 C   0  0  0  0  0  0  0  0  0  0  0  0
   -2.9180   -0.1370   -0.2400 C   0  0  0  0  0  0  0  0  0  0  0  0
   -4.2510    0.0290   -0.6160 C   0  0  0  0  0  0  0  0  0  0  0  0
   -4.7790   -0.5550   -1.8570 C   0  0  0  0  0  0  0  0  0  0  0  0
   -3.7270   -1.3860   -2.5390 C   0  0  0  0  0  0  0  0  0  0  0  0
   -4.2320   -2.0080   -3.8390 C   0  0  0  0  0  0  0  0  0  0  0  0
   -5.4090   -2.8840   -3.5200 C   0  0  0  0  0  0  0  0  0  0  0  0
   -5.0930   -3.8960   -2.6310 O   0  0  0  0  0  0  0  0  0  0  0  0
  1  2  1  0
  2  3  1  0
  3  4  1  0
  3  5  1  0
  5  6  1  0
  6  7  2  0
  6 36  1  0
  7  8  1  0
  8  9  2  0
  9 10  1  0
  9 35  1  0
 10 11  1  0
 11 12  2  0
 13 11  1  6
 13 14  1  0
 13 34  1  0
 14 15  1  0
 15 16  1  1
 15 19  1  0
 16 17  1  0
 17 18  1  0
 19 20  2  0
 19 21  1  0
 21 22  1  0
 21 34  1  0
 22 23  2  3
 22 28  1  0
 23 24  1  0
 24 25  2  0
 24 26  1  0
 26 27  1  0
 29 28  1  1
 29 30  1  0
 29 33  1  0
 30 31  1  0
 31 32  1  0
 32 33  1  0
 35 36  2  0
 36 37  1  0
 37 38  1  0
 38 39  1  0
 39 40  1  0
 40 41  1  0
M  CHG  1  33   1
M  END
