
     RDKit          3D

 41 43  0  0  0  0  0  0  0  0999 V2000
   10.2580   -1.0420   -0.9740 C   0  0  0  0  0  0  0  0  0  0  0  0
    9.2120   -1.4510   -0.3520 C   0  0  0  0  0  0  0  0  0  0  0  0
    8.9670   -1.3320    1.0640 C   0  0  0  0  0  0  0  0  0  0  0  0
    7.8930   -0.3110    1.3980 C   0  0  0  0  0  0  0  0  0  0  0  0
    8.3070    1.1250    0.9550 C   0  0  2  0  0  0  0  0  0  0  0  0
    9.5820    1.5320    1.5970 C   0  0  0  0  0  0  0  0  0  0  0  0
    7.2480    1.9700    1.5840 N   0  0  0  0  0  0  0  0  0  0  0  0
    5.9510    1.6330    1.2720 C   0  0  0  0  0  0  0  0  0  0  0  0
    5.7130    0.7090    0.4800 O   0  0  0  0  0  0  0  0  0  0  0  0
    4.6830    2.2780    1.8390 C   0  0  0  0  0  0  0  0  0  0  0  0
    3.6330    1.4290    1.5080 N   0  0  0  0  0  0  0  0  0  0  0  0
    3.7730    0.1440    2.2350 C   0  0  0  0  0  0  0  0  0  0  0  0
    2.3820    1.6340    0.9740 C   0  0  0  0  0  0  0  0  0  0  0  0
    1.7740    0.2890    0.6000 C   0  0  1  0  0  0  0  0  0  0  0  0
    0.3720    0.4510   -0.0140 C   0  0  0  0  0  0  0  0  0  0  0  0
    0.1430   -0.8250   -0.6920 N   0  0  0  0  0  0  0  0  0  0  0  0
   -0.6950   -1.8370   -0.3900 C   0  0  0  0  0  0  0  0  0  0  0  0
   -0.1370   -3.0290   -0.6690 O   0  0  0  0  0  0  0  0  0  0  0  0
   -2.0250   -2.0350    0.1430 C   0  0  0  0  0  0  0  0  0  0  0  0
   -2.9190   -0.8990    0.1590 N   0  0  0  0  0  0  0  0  0  0  0  0
   -3.3240   -0.4140   -1.1400 C   0  0  0  0  0  0  0  0  0  0  0  0
   -2.5790   -0.7610   -2.2480 C   0  0  0  0  0  0  0  0  0  0  0  0
   -2.8490   -0.1970   -3.4640 C   0  0  0  0  0  0  0  0  0  0  0  0
   -3.8640    0.7120   -3.6020 C   0  0  0  0  0  0  0  0  0  0  0  0
   -4.6430    1.0720   -2.4950 C   0  0  0  0  0  0  0  0  0  0  0  0
   -4.3430    0.4840   -1.2830 C   0  0  0  0  0  0  0  0  0  0  0  0
   -5.2880    0.7890   -0.1230 C   0  0  0  0  0  0  0  0  0  0  0  0
   -6.6230    0.4220   -0.5690 N   0  0  2  0  0  0  0  0  0  0  0  0
   -7.5230    1.2770   -1.1140 C   0  0  0  0  0  0  0  0  0  0  0  0
   -8.9240    0.7380   -1.3140 C   0  0  0  0  0  0  0  0  0  0  0  0
   -9.2000   -0.6470   -0.9340 C   0  0  0  0  0  0  0  0  0  0  0  0
   -8.0470   -1.4570   -0.4400 C   0  0  0  0  0  0  0  0  0  0  0  0
   -7.1580   -0.5670    0.3960 C   0  0  2  0  0  0  0  0  0  0  0  0
   -7.9470   -0.0160    1.5140 C   0  0  0  0  0  0  0  0  0  0  0  0
   -7.3380    0.8980    2.4350 C   0  0  0  0  0  0  0  0  0  0  0  0
   -7.0300    2.0770    1.8880 O   0  0  0  0  0  0  0  0  0  0  0  0
   -6.9880    0.8650    3.7350 O   0  0  0  0  0  0  0  0  0  0  0  0
    0.8250   -0.9080   -2.0220 C   0  0  0  0  0  0  0  0  0  0  0  0
    2.0640   -0.1030   -1.8600 C   0  0  0  0  0  0  0  0  0  0  0  0
    2.6470   -0.3760   -0.4500 C   0  0  2  0  0  0  0  0  0  0  0  0
    2.5990   -1.7530   -0.2900 O   0  0  0  0  0  0  0  0  0  0  0  0
  1  2  2  0
  2  3  1  0
  3  4  1  0
  4  5  1  0
  5  6  1  1
  5  7  1  0
  7  8  1  0
  8  9  2  0
  8 10  1  0
 10 11  1  0
 11 12  1  0
 11 13  1  0
 14 13  1  6
 14 15  1  0
 14 40  1  0
 15 16  1  0
 16 17  1  0
 16 38  1  0
 17 18  2  0
 17 19  1  0
 19 20  1  0
 20 21  1  0
 21 22  2  0
 21 26  1  0
 22 23  1  0
 23 24  2  0
 24 25  1  0
 25 26  2  0
 26 27  1  0
 28 27  1  1
 28 29  1  0
 28 33  1  0
 29 30  1  0
 30 31  1  0
 31 32  1  0
 32 33  1  0
 33 34  1  1
 34 35  1  0
 35 36  2  0
 35 37  1  0
 38 39  1  0
 39 40  1  0
 40 41  1  1
M  CHG  1  28   1
M  END
