
     RDKit          3D

 41 42  0  0  0  0  0  0  0  0999 V2000
    3.4830    1.6510    4.2670 C   0  0  0  0  0  0  0  0  0  0  0  0
    3.6800    1.2060    2.8100 C   0  0  0  0  0  0  0  0  0  0  0  0
    4.9270    1.6490    2.2690 N   0  0  1  0  0  0  0  0  0  0  0  0
    5.8490    0.5760    1.9620 C   0  0  0  0  0  0  0  0  0  0  0  0
    7.2540    1.1170    1.8190 C   0  0  0  0  0  0  0  0  0  0  0  0
    7.7290    1.7370    2.9490 O   0  0  0  0  0  0  0  0  0  0  0  0
    4.7370    2.5850    1.2160 C   0  0  0  0  0  0  0  0  0  0  0  0
    4.3320    1.9320   -0.0870 C   0  0  2  0  0  0  0  0  0  0  0  0
    4.2200    3.0810   -1.0930 C   0  0  0  0  0  0  0  0  0  0  0  0
    3.1400    1.2320    0.0230 O   0  0  0  0  0  0  0  0  0  0  0  0
    2.8990    0.0230   -0.5490 C   0  0  0  0  0  0  0  0  0  0  0  0
    3.7760   -0.6770   -1.3320 C   0  0  0  0  0  0  0  0  0  0  0  0
    3.4270   -1.9180   -1.8760 C   0  0  0  0  0  0  0  0  0  0  0  0
    2.1950   -2.4630   -1.6330 C   0  0  0  0  0  0  0  0  0  0  0  0
    1.8090   -3.7650   -2.2320 C   0  0  2  0  0  0  0  0  0  0  0  0
    3.1160   -4.4040   -2.7450 C   0  0  0  0  0  0  0  0  0  0  0  0
    0.9330   -3.5710   -3.4380 C   0  0  0  0  0  0  0  0  0  0  0  0
    1.4030   -2.6880   -4.5390 C   0  0  0  0  0  0  0  0  0  0  0  0
   -0.1280   -4.1240   -3.5060 O   0  0  0  0  0  0  0  0  0  0  0  0
    1.2670   -1.7920   -0.8410 C   0  0  0  0  0  0  0  0  0  0  0  0
    0.0080   -2.3520   -0.5740 N   0  0  0  0  0  0  0  0  0  0  0  0
   -0.9800   -1.7920    0.2310 C   0  0  0  0  0  0  0  0  0  0  0  0
   -0.8610   -0.7020    0.8260 O   0  0  0  0  0  0  0  0  0  0  0  0
   -2.2310   -2.5250    0.3890 N   0  0  0  0  0  0  0  0  0  0  0  0
   -2.4420   -3.7810   -0.2830 C   0  0  0  0  0  0  0  0  0  0  0  0
   -3.2340   -2.0040    1.2660 C   0  0  0  0  0  0  0  0  0  0  0  0
   -4.1310   -1.0290    0.5770 C   0  0  0  0  0  0  0  0  0  0  0  0
   -4.1800    0.1960    1.0390 C   0  0  0  0  0  0  0  0  0  0  0  0
   -4.9600    1.3070    0.5690 C   0  0  0  0  0  0  0  0  0  0  0  0
   -4.3830    2.4440    0.0240 C   0  0  0  0  0  0  0  0  0  0  0  0
   -5.1250    3.5200   -0.3610 C   0  0  0  0  0  0  0  0  0  0  0  0
   -4.4860    4.7500   -0.9510 C   0  0  0  0  0  0  0  0  0  0  0  0
   -6.4960    3.5090   -0.2180 C   0  0  0  0  0  0  0  0  0  0  0  0
   -7.0820    2.3880    0.3220 C   0  0  0  0  0  0  0  0  0  0  0  0
   -6.3430    1.2990    0.7130 C   0  0  0  0  0  0  0  0  0  0  0  0
   -7.0470    0.2070    1.3030 N   0  0  0  0  0  0  0  0  0  0  0  0
   -8.4800    0.2350    1.4660 C   0  0  0  0  0  0  0  0  0  0  0  0
   -4.8760   -1.3950   -0.6190 C   0  0  0  0  0  0  0  0  0  0  0  0
   -5.6480   -0.4580   -1.3440 N   0  0  0  0  0  0  0  0  0  0  0  0
   -4.8710   -2.5790   -1.0750 O   0  0  0  0  0  0  0  0  0  0  0  0
    1.6430   -0.5790   -0.3270 C   0  0  0  0  0  0  0  0  0  0  0  0
  1  2  1  0
  3  2  1  6
  3  4  1  0
  3  7  1  0
  4  5  1  0
  5  6  1  0
  7  8  1  0
  8  9  1  6
  8 10  1  0
 10 11  1  0
 11 12  2  0
 11 41  1  0
 12 13  1  0
 13 14  2  0
 14 15  1  0
 14 20  1  0
 15 16  1  6
 15 17  1  0
 17 18  1  0
 17 19  2  0
 20 21  1  0
 20 41  2  0
 21 22  1  0
 22 23  2  0
 22 24  1  0
 24 25  1  0
 24 26  1  0
 26 27  1  0
 27 28  2  3
 27 38  1  0
 28 29  1  0
 29 30  2  0
 29 35  1  0
 30 31  1  0
 31 32  1  0
 31 33  2  0
 33 34  1  0
 34 35  2  0
 35 36  1  0
 36 37  1  0
 38 39  1  0
 38 40  2  0
M  CHG  1   3   1
M  END
