
     RDKit          3D

 41 46  0  0  0  0  0  0  0  0999 V2000
    0.9420    6.0740    0.8840 C   0  0  0  0  0  0  0  0  0  0  0  0
    0.1980    4.9720    1.5840 C   0  0  0  0  0  0  0  0  0  0  0  0
   -0.5990    5.1730    2.6820 C   0  0  0  0  0  0  0  0  0  0  0  0
   -1.0800    3.9240    3.0010 C   0  0  0  0  0  0  0  0  0  0  0  0
   -1.9420    3.5150    3.9870 C   0  0  0  0  0  0  0  0  0  0  0  0
   -2.3830    4.3910    4.7870 O   0  0  0  0  0  0  0  0  0  0  0  0
   -2.2980    2.2380    4.0940 N   0  0  0  0  0  0  0  0  0  0  0  0
   -1.8180    1.3310    3.2400 C   0  0  0  0  0  0  0  0  0  0  0  0
   -2.0050    0.0210    3.1020 N   0  0  0  0  0  0  0  0  0  0  0  0
   -1.3320   -0.4970    2.1000 N   0  0  0  0  0  0  0  0  0  0  0  0
   -1.4100   -1.8780    1.6770 C   0  0  0  0  0  0  0  0  0  0  0  0
   -2.6520   -2.1180    0.8630 C   0  0  0  0  0  0  0  0  0  0  0  0
   -2.8130   -1.3270   -0.3170 N   0  0  0  0  0  0  0  0  0  0  0  0
   -3.9530   -1.6130   -1.1240 C   0  0  0  0  0  0  0  0  0  0  0  0
   -4.8520   -2.5910   -0.8010 C   0  0  0  0  0  0  0  0  0  0  0  0
   -5.9590   -2.8800   -1.5730 C   0  0  0  0  0  0  0  0  0  0  0  0
   -6.1550   -2.1390   -2.7180 C   0  0  0  0  0  0  0  0  0  0  0  0
   -5.2650   -1.1270   -3.0920 C   0  0  0  0  0  0  0  0  0  0  0  0
   -4.1600   -0.8850   -2.2640 C   0  0  0  0  0  0  0  0  0  0  0  0
   -3.0870    0.3960   -2.7920 Cl  0  0  0  0  0  0  0  0  0  0  0  0
   -0.6320    0.5340    1.5130 C   0  0  0  0  0  0  0  0  0  0  0  0
    0.3120    0.3150    0.4420 C   0  0  0  0  0  0  0  0  0  0  0  0
    1.2330    1.2150   -0.0750 N   0  0  0  0  0  0  0  0  0  0  0  0
    0.4260   -0.8630   -0.1230 N   0  0  0  0  0  0  0  0  0  0  0  0
    1.2780   -1.2120   -1.1520 C   0  0  0  0  0  0  0  0  0  0  0  0
    0.7290   -1.1450   -2.4140 N   0  0  0  0  0  0  0  0  0  0  0  0
    1.4060   -1.4370   -3.5100 C   0  0  0  0  0  0  0  0  0  0  0  0
    2.7180   -1.8260   -3.3690 C   0  0  0  0  0  0  0  0  0  0  0  0
    3.2480   -1.8900   -2.1410 N   0  0  0  0  0  0  0  0  0  0  0  0
    2.5720   -1.5950   -1.0150 C   0  0  0  0  0  0  0  0  0  0  0  0
    3.1980   -1.7260    0.2690 C   0  0  0  0  0  0  0  0  0  0  0  0
    2.1890   -1.4990    1.7110 Cl  0  0  0  0  0  0  0  0  0  0  0  0
    4.4570   -2.0090    0.4980 C   0  0  0  0  0  0  0  0  0  0  0  0
    5.5180   -2.2490   -0.4500 C   0  0  0  0  0  0  0  0  0  0  0  0
    5.8890   -1.4450   -1.4900 C   0  0  0  0  0  0  0  0  0  0  0  0
    6.9210   -2.0200   -2.1780 N   0  0  0  0  0  0  0  0  0  0  0  0
    7.1840   -3.1760   -1.5620 C   0  0  0  0  0  0  0  0  0  0  0  0
    6.3490   -3.3290   -0.5190 N   0  0  0  0  0  0  0  0  0  0  0  0
   -0.9410    1.6940    2.2250 C   0  0  0  0  0  0  0  0  0  0  0  0
   -0.5560    3.0110    2.0870 C   0  0  0  0  0  0  0  0  0  0  0  0
    0.2200    3.6550    1.2260 N   0  0  0  0  0  0  0  0  0  0  0  0
  1  2  1  0
  2  3  2  0
  2 41  1  0
  3  4  1  0
  4  5  1  0
  4 40  2  0
  5  6  2  0
  5  7  1  0
  7  8  1  0
  8  9  2  0
  8 39  1  0
  9 10  1  0
 10 11  1  0
 10 21  1  0
 11 12  1  0
 12 13  1  0
 13 14  1  0
 14 15  2  0
 14 19  1  0
 15 16  1  0
 16 17  2  0
 17 18  1  0
 18 19  2  0
 19 20  1  0
 21 22  1  0
 21 39  2  0
 22 23  1  0
 22 24  2  3
 24 25  1  0
 25 26  2  0
 25 30  1  0
 26 27  1  0
 27 28  2  0
 28 29  1  0
 29 30  2  0
 30 31  1  0
 31 32  1  0
 31 33  2  3
 33 34  1  0
 34 35  2  0
 34 38  1  0
 35 36  1  0
 36 37  1  0
 37 38  2  0
 39 40  1  0
 40 41  1  0
M  END
