
     RDKit          3D

 41 43  0  0  0  0  0  0  0  0999 V2000
   -5.9940   -2.0590   -1.0950 C   0  0  0  0  0  0  0  0  0  0  0  0
   -4.7380   -1.2100   -1.0770 C   0  0  0  0  0  0  0  0  0  0  0  0
   -4.2640   -1.1870    0.2810 N   0  0  0  0  0  0  0  0  0  0  0  0
   -2.9680   -0.6780    0.4800 C   0  0  1  0  0  0  0  0  0  0  0  0
   -1.8890   -1.4680   -0.1670 C   0  0  0  0  0  0  0  0  0  0  0  0
   -1.1600   -0.9940   -1.1420 C   0  0  0  0  0  0  0  0  0  0  0  0
   -0.0820   -1.5700   -1.9020 N   0  0  0  0  0  0  0  0  0  0  0  0
    0.1670   -2.9240   -2.2560 C   0  0  0  0  0  0  0  0  0  0  0  0
   -0.3140   -3.9130   -1.3360 N   0  0  0  0  0  0  0  0  0  0  0  0
   -1.0490   -3.8180   -0.1240 C   0  0  0  0  0  0  0  0  0  0  0  0
   -1.6930   -2.8130    0.3500 N   0  0  0  0  0  0  0  0  0  0  0  0
   -2.7250    0.7680    0.6930 C   0  0  1  0  0  0  0  0  0  0  0  0
   -1.2940    0.8820    0.7490 O   0  0  0  0  0  0  0  0  0  0  0  0
   -0.5050    1.1890    1.7980 C   0  0  0  0  0  0  0  0  0  0  0  0
   -0.9620    1.4500    3.0520 C   0  0  0  0  0  0  0  0  0  0  0  0
   -0.1010    1.7650    4.1170 C   0  0  0  0  0  0  0  0  0  0  0  0
    1.2530    1.8150    3.9010 C   0  0  0  0  0  0  0  0  0  0  0  0
    1.7220    1.5470    2.6130 C   0  0  0  0  0  0  0  0  0  0  0  0
    0.8900    1.2370    1.5620 C   0  0  0  0  0  0  0  0  0  0  0  0
    1.2670    0.9580    0.2800 O   0  0  0  0  0  0  0  0  0  0  0  0
    2.5810    0.8990   -0.1550 C   0  0  0  0  0  0  0  0  0  0  0  0
    3.3180   -0.2190    0.4710 C   0  0  0  0  0  0  0  0  0  0  0  0
    4.7890   -0.2820    0.0160 C   0  0  1  0  0  0  0  0  0  0  0  0
    5.4530    1.0270    0.4180 C   0  0  0  0  0  0  0  0  0  0  0  0
    5.3380   -1.3150    0.7200 O   0  0  0  0  0  0  0  0  0  0  0  0
    6.6050   -1.7160    0.3870 C   0  0  1  0  0  0  0  0  0  0  0  0
    7.6660   -1.1670    1.3130 C   0  0  0  0  0  0  0  0  0  0  0  0
    6.6320   -3.2380    0.5460 C   0  0  0  0  0  0  0  0  0  0  0  0
    6.9940   -1.4580   -1.0510 C   0  0  0  0  0  0  0  0  0  0  0  0
    5.7730   -1.5390   -1.9130 C   0  0  0  0  0  0  0  0  0  0  0  0
    4.8380   -0.4190   -1.4750 C   0  0  2  0  0  0  0  0  0  0  0  0
    5.2950    0.8280   -2.1890 C   0  0  0  0  0  0  0  0  0  0  0  0
   -3.3120    1.7530   -0.2010 C   0  0  0  0  0  0  0  0  0  0  0  0
   -2.5860    2.2700   -1.0870 O   0  0  0  0  0  0  0  0  0  0  0  0
   -4.6380    2.2290   -0.2010 N   0  0  0  0  0  0  0  0  0  0  0  0
   -5.0440    3.1530   -1.2780 C   0  0  0  0  0  0  0  0  0  0  0  0
   -5.5680    2.4330   -2.4860 C   0  0  0  0  0  0  0  0  0  0  0  0
   -5.9210    3.4120   -3.4340 O   0  0  0  0  0  0  0  0  0  0  0  0
   -5.6480    1.9910    0.8020 C   0  0  1  0  0  0  0  0  0  0  0  0
   -6.0140    3.3450    1.4660 C   0  0  0  0  0  0  0  0  0  0  0  0
   -6.9550    1.4710    0.2710 C   0  0  0  0  0  0  0  0  0  0  0  0
  1  2  1  0
  2  3  1  0
  4  3  1  6
  4  5  1  0
  4 12  1  0
  5  6  2  0
  5 11  1  0
  6  7  1  0
  7  8  1  0
  8  9  1  0
  9 10  1  0
 10 11  2  0
 12 13  1  6
 12 33  1  0
 13 14  1  0
 14 15  2  0
 14 19  1  0
 15 16  1  0
 16 17  2  0
 17 18  1  0
 18 19  2  0
 19 20  1  0
 20 21  1  0
 21 22  1  0
 22 23  1  0
 23 24  1  6
 23 25  1  0
 23 31  1  0
 25 26  1  0
 26 27  1  1
 26 28  1  0
 26 29  1  0
 29 30  1  0
 30 31  1  0
 31 32  1  6
 33 34  2  0
 33 35  1  0
 35 36  1  0
 35 39  1  0
 36 37  1  0
 37 38  1  0
 39 40  1  6
 39 41  1  0
M  CHG  1   3   1
M  END
