
     RDKit          3D

 42 46  0  0  0  0  0  0  0  0999 V2000
   -8.4430    4.3850   -0.6010 C   0  0  0  0  0  0  0  0  0  0  0  0
   -8.3360    3.2760    0.2810 O   0  0  0  0  0  0  0  0  0  0  0  0
   -7.1010    2.6750    0.4570 C   0  0  0  0  0  0  0  0  0  0  0  0
   -5.9540    3.0940   -0.1800 C   0  0  0  0  0  0  0  0  0  0  0  0
   -4.7540    2.4600    0.0340 C   0  0  0  0  0  0  0  0  0  0  0  0
   -4.6680    1.3720    0.9040 C   0  0  0  0  0  0  0  0  0  0  0  0
   -3.1160    0.6490    1.1430 S   0  0  1  0  0  0  0  0  0  0  0  0
   -2.1460    1.7840    1.3370 O   0  0  0  0  0  0  0  0  0  0  0  0
   -3.1760   -0.0360    2.5110 O   0  0  0  0  0  0  0  0  0  0  0  0
   -2.5650   -0.4650    0.0400 N   0  0  0  0  0  0  0  0  0  0  0  0
   -3.2420   -1.6550   -0.1900 C   0  0  0  0  0  0  0  0  0  0  0  0
   -4.1410   -1.8610   -1.3330 C   0  0  1  0  0  0  0  0  0  0  0  0
   -5.3000   -0.8950   -1.3710 C   0  0  0  0  0  0  0  0  0  0  0  0
   -3.5230   -2.0100   -2.6890 C   0  0  0  0  0  0  0  0  0  0  0  0
   -1.5550   -0.0760   -0.8580 C   0  0  0  0  0  0  0  0  0  0  0  0
   -0.1510    0.0270   -0.4130 C   0  0  1  0  0  0  0  0  0  0  0  0
    0.1540    0.9290    0.5650 O   0  0  0  0  0  0  0  0  0  0  0  0
    0.5940   -1.2700   -0.2190 C   0  0  2  0  0  0  0  0  0  0  0  0
    0.2690   -1.8760    1.1360 C   0  0  0  0  0  0  0  0  0  0  0  0
    0.9470   -3.1790    1.3700 C   0  0  0  0  0  0  0  0  0  0  0  0
    0.4060   -4.3470    0.8820 C   0  0  0  0  0  0  0  0  0  0  0  0
    1.0130   -5.5480    1.1150 C   0  0  0  0  0  0  0  0  0  0  0  0
    2.1770   -5.6150    1.8410 C   0  0  0  0  0  0  0  0  0  0  0  0
    2.7200   -4.4520    2.3310 C   0  0  0  0  0  0  0  0  0  0  0  0
    2.1010   -3.2190    2.0940 C   0  0  0  0  0  0  0  0  0  0  0  0
    2.0240   -1.0980   -0.3540 N   0  0  0  0  0  0  0  0  0  0  0  0
    2.8440   -0.3740    0.5360 C   0  0  0  0  0  0  0  0  0  0  0  0
    2.3680    0.1870    1.5330 O   0  0  0  0  0  0  0  0  0  0  0  0
    4.2220   -0.2450    0.3500 O   0  0  0  0  0  0  0  0  0  0  0  0
    4.9890    0.4960    1.2790 C   0  0  1  0  0  0  0  0  0  0  0  0
    6.0210   -0.5020    1.8350 C   0  0  0  0  0  0  0  0  0  0  0  0
    6.8220   -0.7020    0.7390 O   0  0  0  0  0  0  0  0  0  0  0  0
    6.9650    0.4710    0.0450 C   0  0  1  0  0  0  0  0  0  0  0  0
    6.5310    0.3620   -1.2770 O   0  0  0  0  0  0  0  0  0  0  0  0
    6.2420    1.6590   -1.6980 C   0  0  2  0  0  0  0  0  0  0  0  0
    7.3970    2.3820   -1.7290 O   0  0  0  0  0  0  0  0  0  0  0  0
    7.3300    3.4290   -0.8550 C   0  0  0  0  0  0  0  0  0  0  0  0
    5.8560    3.6220   -0.4850 C   0  0  0  0  0  0  0  0  0  0  0  0
    5.3870    2.1650   -0.5650 C   0  0  2  0  0  0  0  0  0  0  0  0
    5.9340    1.4550    0.6150 C   0  0  1  0  0  0  0  0  0  0  0  0
   -5.8220    0.9570    1.5390 C   0  0  0  0  0  0  0  0  0  0  0  0
   -7.0060    1.5950    1.3180 C   0  0  0  0  0  0  0  0  0  0  0  0
  1  2  1  0
  2  3  1  0
  3  4  2  0
  3 42  1  0
  4  5  1  0
  5  6  2  0
  6  7  1  0
  6 41  1  0
  7  8  2  0
  7  9  2  0
  7 10  1  6
 10 11  1  0
 10 15  1  0
 11 12  1  0
 12 13  1  6
 12 14  1  0
 15 16  1  0
 16 17  1  1
 16 18  1  0
 18 19  1  1
 18 26  1  0
 19 20  1  0
 20 21  2  0
 20 25  1  0
 21 22  1  0
 22 23  2  0
 23 24  1  0
 24 25  2  0
 26 27  1  0
 27 28  2  0
 27 29  1  0
 30 29  1  6
 30 31  1  0
 40 30  1  6
 31 32  1  0
 33 32  1  1
 33 34  1  0
 33 40  1  0
 35 34  1  1
 35 36  1  0
 35 39  1  0
 36 37  1  0
 37 38  1  0
 39 38  1  1
 39 40  1  0
 41 42  2  0
M  END
