
     RDKit          3D

 41 42  0  0  0  0  0  0  0  0999 V2000
   12.0750   -0.8140    2.6930 C   0  0  0  0  0  0  0  0  0  0  0  0
   12.3790    0.5080    2.1210 C   0  0  0  0  0  0  0  0  0  0  0  0
   11.4400    1.2020    1.4650 C   0  0  0  0  0  0  0  0  0  0  0  0
   10.0960    0.7340    1.2680 C   0  0  0  0  0  0  0  0  0  0  0  0
    9.1410    1.3480    0.6470 C   0  0  0  0  0  0  0  0  0  0  0  0
    9.2930    2.6410    0.0340 C   0  0  0  0  0  0  0  0  0  0  0  0
   10.4880    3.4130   -0.0500 N   0  0  0  0  0  0  0  0  0  0  0  0
    8.3210    3.2790   -0.5350 O   0  0  0  0  0  0  0  0  0  0  0  0
    7.8120    0.6850    0.5990 C   0  0  0  0  0  0  0  0  0  0  0  0
    7.5330   -0.3920    1.4070 C   0  0  0  0  0  0  0  0  0  0  0  0
    6.3480   -1.1360    1.3440 C   0  0  0  0  0  0  0  0  0  0  0  0
    5.4140   -0.7780    0.4340 C   0  0  0  0  0  0  0  0  0  0  0  0
    4.2520   -1.5140    0.2230 N   0  0  0  0  0  0  0  0  0  0  0  0
    2.9910   -0.7250   -0.0290 C   0  0  0  0  0  0  0  0  0  0  0  0
    3.0570    0.4490    0.1240 O   0  0  0  0  0  0  0  0  0  0  0  0
    2.0160   -1.6550   -0.4240 N   0  0  0  0  0  0  0  0  0  0  0  0
    0.7330   -0.5050   -0.7030 C   0  0  0  0  0  0  0  0  0  0  0  0
    1.0420    0.5810   -0.5220 O   0  0  0  0  0  0  0  0  0  0  0  0
   -0.4900   -1.1690   -1.1150 C   0  0  1  0  0  0  0  0  0  0  0  0
   -0.2730   -2.3630   -2.0370 C   0  0  0  0  0  0  0  0  0  0  0  0
   -1.4210   -1.5680    0.0090 C   0  0  0  0  0  0  0  0  0  0  0  0
   -2.5970   -2.2020   -0.6050 C   0  0  0  0  0  0  0  0  0  0  0  0
   -2.4430   -3.4700   -0.9320 O   0  0  0  0  0  0  0  0  0  0  0  0
   -3.8440   -1.6250   -0.8910 N   0  0  0  0  0  0  0  0  0  0  0  0
   -4.7470   -2.5000   -1.6560 C   0  0  0  0  0  0  0  0  0  0  0  0
   -5.6520   -3.3820   -0.9160 C   0  0  2  0  0  0  0  0  0  0  0  0
   -6.4030   -4.1990   -2.0150 C   0  0  0  0  0  0  0  0  0  0  0  0
   -6.8360   -2.6170   -0.2630 C   0  0  0  0  0  0  0  0  0  0  0  0
   -7.6690   -3.4930    0.4170 O   0  0  0  0  0  0  0  0  0  0  0  0
   -4.2420   -0.3030   -0.5000 C   0  0  2  0  0  0  0  0  0  0  0  0
   -3.4470    0.7790   -1.2100 C   0  0  0  0  0  0  0  0  0  0  0  0
   -4.2860    2.0420   -1.2240 C   0  0  0  0  0  0  0  0  0  0  0  0
   -4.4020    2.6010    0.1520 C   0  0  0  0  0  0  0  0  0  0  0  0
   -5.5330    2.1420    0.9060 N   0  0  1  0  0  0  0  0  0  0  0  0
   -6.7930    2.3460    0.2540 C   0  0  0  0  0  0  0  0  0  0  0  0
   -7.2980    3.7520    0.2620 C   0  0  0  0  0  0  0  0  0  0  0  0
   -7.5490    4.3420    1.6120 C   0  0  0  0  0  0  0  0  0  0  0  0
   -5.4570    0.8060    1.3960 C   0  0  0  0  0  0  0  0  0  0  0  0
   -4.2610   -0.0020    0.9600 C   0  0  0  0  0  0  0  0  0  0  0  0
    5.6730    0.3210   -0.4010 C   0  0  0  0  0  0  0  0  0  0  0  0
    6.8440    1.0300   -0.3150 C   0  0  0  0  0  0  0  0  0  0  0  0
  1  2  1  0
  2  3  2  3
  3  4  1  0
  4  5  2  3
  5  6  1  0
  5  9  1  0
  6  7  1  0
  6  8  2  0
  9 10  2  0
  9 41  1  0
 10 11  1  0
 11 12  2  0
 12 13  1  0
 12 40  1  0
 13 14  1  0
 14 15  2  0
 14 16  1  0
 16 17  1  0
 17 18  2  0
 17 19  1  0
 19 20  1  1
 19 21  1  0
 21 22  1  0
 22 23  2  0
 22 24  1  0
 24 25  1  0
 30 24  1  1
 25 26  1  0
 26 27  1  6
 26 28  1  0
 28 29  1  0
 30 31  1  0
 30 39  1  0
 31 32  1  0
 32 33  1  0
 33 34  1  0
 34 35  1  6
 34 38  1  0
 35 36  1  0
 36 37  1  0
 38 39  1  0
 40 41  2  0
M  CHG  1  34   1
M  END
