
     RDKit          3D

 41 43  0  0  0  0  0  0  0  0999 V2000
   -6.5840    3.6600   -0.2160 C   0  0  0  0  0  0  0  0  0  0  0  0
   -6.3840    2.4120   -0.9230 N   0  0  0  0  0  0  0  0  0  0  0  0
   -6.9900    1.2050   -0.4880 C   0  0  0  0  0  0  0  0  0  0  0  0
   -6.2480    0.2780    0.0900 C   0  0  0  0  0  0  0  0  0  0  0  0
   -6.8610   -0.9510    0.5300 C   0  0  0  0  0  0  0  0  0  0  0  0
   -6.2310   -1.9510    1.1280 C   0  0  0  0  0  0  0  0  0  0  0  0
   -6.9080   -3.2120    1.5690 C   0  0  0  0  0  0  0  0  0  0  0  0
   -8.2660   -3.2760    1.2990 O   0  0  0  0  0  0  0  0  0  0  0  0
   -8.9380   -2.2730    0.6910 C   0  0  0  0  0  0  0  0  0  0  0  0
   -8.2980   -1.1590    0.3150 C   0  0  0  0  0  0  0  0  0  0  0  0
   -4.8160    0.6010    0.2520 C   0  0  1  0  0  0  0  0  0  0  0  0
   -4.4980    0.8790    1.6880 C   0  0  0  0  0  0  0  0  0  0  0  0
   -3.0180    1.2480    1.8770 C   0  0  0  0  0  0  0  0  0  0  0  0
   -2.1290    0.0910    1.5790 C   0  0  0  0  0  0  0  0  0  0  0  0
   -1.5540    0.0830    0.2080 C   0  0  2  0  0  0  0  0  0  0  0  0
   -0.3330    0.7680   -0.0000 N   0  0  1  0  0  0  0  0  0  0  0  0
    0.1430    1.6390    1.0080 C   0  0  0  0  0  0  0  0  0  0  0  0
    0.1090    3.1240    0.6070 C   0  0  0  0  0  0  0  0  0  0  0  0
    0.8920    3.3200   -0.5020 O   0  0  0  0  0  0  0  0  0  0  0  0
    0.7280   -0.1970   -0.3190 C   0  0  0  0  0  0  0  0  0  0  0  0
    0.9870   -0.2700   -1.7810 C   0  0  1  0  0  0  0  0  0  0  0  0
    1.4260    0.9210   -2.3570 O   0  0  0  0  0  0  0  0  0  0  0  0
    1.8930   -1.3760   -2.1460 C   0  0  0  0  0  0  0  0  0  0  0  0
    3.2560   -1.1650   -1.7230 N   0  0  0  0  0  0  0  0  0  0  0  0
    4.1120   -0.3490   -2.5770 C   0  0  0  0  0  0  0  0  0  0  0  0
    3.7010   -1.7050   -0.4970 C   0  0  0  0  0  0  0  0  0  0  0  0
    2.8760   -2.2810    0.2770 O   0  0  0  0  0  0  0  0  0  0  0  0
    5.0620   -1.6160   -0.1150 N   0  0  0  0  0  0  0  0  0  0  0  0
    6.0590   -2.5280   -0.5650 C   0  0  0  0  0  0  0  0  0  0  0  0
    6.7780   -2.2210   -1.8200 C   0  0  0  0  0  0  0  0  0  0  0  0
    7.7550   -3.2220   -2.1080 O   0  0  0  0  0  0  0  0  0  0  0  0
    8.3430   -2.7860   -3.3200 C   0  0  0  0  0  0  0  0  0  0  0  0
    5.4680   -0.6310    0.8630 C   0  0  0  0  0  0  0  0  0  0  0  0
    4.5790    0.0560    1.6420 C   0  0  0  0  0  0  0  0  0  0  0  0
    4.9450    0.9990    2.5760 C   0  0  0  0  0  0  0  0  0  0  0  0
    6.2820    1.2680    2.7410 C   0  0  0  0  0  0  0  0  0  0  0  0
    6.7040    2.2290    3.6890 N   0  0  0  0  0  0  0  0  0  0  0  0
    7.2170    0.6040    1.9840 C   0  0  0  0  0  0  0  0  0  0  0  0
    6.8060   -0.3360    1.0550 C   0  0  0  0  0  0  0  0  0  0  0  0
   -2.6250    0.5130   -0.8080 C   0  0  0  0  0  0  0  0  0  0  0  0
   -3.8820   -0.2900   -0.4720 C   0  0  0  0  0  0  0  0  0  0  0  0
  1  2  1  0
  2  3  1  0
  3  4  2  3
  4  5  1  0
 11  4  1  1
  5  6  2  0
  5 10  1  0
  6  7  1  0
  7  8  1  0
  8  9  1  0
  9 10  2  0
 11 12  1  0
 11 41  1  0
 12 13  1  0
 13 14  1  0
 15 14  1  1
 15 16  1  0
 15 40  1  0
 16 17  1  1
 16 20  1  0
 17 18  1  0
 18 19  1  0
 20 21  1  0
 21 22  1  1
 21 23  1  0
 23 24  1  0
 24 25  1  0
 24 26  1  0
 26 27  2  0
 26 28  1  0
 28 29  1  0
 28 33  1  0
 29 30  1  0
 30 31  1  0
 31 32  1  0
 33 34  2  0
 33 39  1  0
 34 35  1  0
 35 36  2  0
 36 37  1  0
 36 38  1  0
 38 39  2  0
 40 41  1  0
M  CHG  1  16   1
M  END
