
     RDKit          3D

 40 42  0  0  0  0  0  0  0  0999 V2000
    3.7970   -9.0880    2.3430 C   0  0  0  0  0  0  0  0  0  0  0  0
    4.8640   -8.1030    2.6940 C   0  0  0  0  0  0  0  0  0  0  0  0
    4.6230   -6.8270    2.6290 C   0  0  0  0  0  0  0  0  0  0  0  0
    3.3340   -6.3480    2.2170 C   0  0  0  0  0  0  0  0  0  0  0  0
    3.0010   -5.0930    2.1030 C   0  0  0  0  0  0  0  0  0  0  0  0
    3.9160   -4.0120    2.3820 C   0  0  0  0  0  0  0  0  0  0  0  0
    3.7140   -2.7440    2.3170 C   0  0  0  0  0  0  0  0  0  0  0  0
    2.4910   -2.0540    1.9570 C   0  0  0  0  0  0  0  0  0  0  0  0
    2.6420   -0.8360    1.2620 C   0  0  0  0  0  0  0  0  0  0  0  0
    1.5780   -0.0540    0.9400 C   0  0  0  0  0  0  0  0  0  0  0  0
    1.6620    1.1470    0.2230 N   0  0  0  0  0  0  0  0  0  0  0  0
    2.7780    1.8130   -0.2500 C   0  0  0  0  0  0  0  0  0  0  0  0
    4.2990    1.2910   -0.0270 S   0  0  0  0  0  0  0  0  0  0  0  0
    2.6010    3.0750   -0.9930 N   0  0  0  0  0  0  0  0  0  0  0  0
    3.7210    3.7900   -1.4770 C   0  0  0  0  0  0  0  0  0  0  0  0
    4.8640    3.3030   -1.2320 O   0  0  0  0  0  0  0  0  0  0  0  0
    3.6600    5.0400   -2.2380 C   0  0  1  0  0  0  0  0  0  0  0  0
    3.0870    4.8350   -3.6310 C   0  0  0  0  0  0  0  0  0  0  0  0
    2.7330    6.2260   -3.9670 N   0  0  0  0  0  0  0  0  0  0  0  0
    2.5000    6.9510   -2.7940 C   0  0  0  0  0  0  0  0  0  0  0  0
    2.2110    8.1660   -2.6680 O   0  0  0  0  0  0  0  0  0  0  0  0
    2.6530    6.0160   -1.6480 C   0  0  0  0  0  0  0  0  0  0  0  0
    0.3250   -0.5270    1.3420 C   0  0  0  0  0  0  0  0  0  0  0  0
   -0.8940    0.2000    1.0120 C   0  0  0  0  0  0  0  0  0  0  0  0
   -1.1510    1.4510    1.5040 C   0  0  0  0  0  0  0  0  0  0  0  0
   -2.3600    2.0230    1.1510 C   0  0  0  0  0  0  0  0  0  0  0  0
   -3.2980    1.4110    0.3470 C   0  0  0  0  0  0  0  0  0  0  0  0
   -4.4980    2.0040    0.0070 O   0  0  0  0  0  0  0  0  0  0  0  0
   -4.8050    3.3000    0.4410 C   0  0  0  0  0  0  0  0  0  0  0  0
   -3.8530    4.3330   -0.1240 C   0  0  0  0  0  0  0  0  0  0  0  0
   -3.0420    0.1320   -0.1590 C   0  0  0  0  0  0  0  0  0  0  0  0
   -3.9080   -0.5240   -0.9430 O   0  0  0  0  0  0  0  0  0  0  0  0
   -5.1200   -0.3110   -1.5080 C   0  0  2  0  0  0  0  0  0  0  0  0
   -6.1570   -1.1460   -0.7240 C   0  0  0  0  0  0  0  0  0  0  0  0
   -5.0950   -0.9090   -2.9260 C   0  0  0  0  0  0  0  0  0  0  0  0
   -6.4100   -0.7230   -3.6260 C   0  0  0  0  0  0  0  0  0  0  0  0
   -1.8110   -0.4370    0.2060 C   0  0  0  0  0  0  0  0  0  0  0  0
    0.2100   -1.7060    2.0160 C   0  0  0  0  0  0  0  0  0  0  0  0
   -0.9180   -2.1600    2.3950 O   0  0  0  0  0  0  0  0  0  0  0  0
    1.2870   -2.4560    2.3170 N   0  0  0  0  0  0  0  0  0  0  0  0
  1  2  1  0
  2  3  2  3
  3  4  1  0
  4  5  2  3
  5  6  1  0
  6  7  2  3
  7  8  1  0
  8  9  2  0
  8 40  1  0
  9 10  1  0
 10 11  1  0
 10 23  2  0
 11 12  1  0
 12 13  2  0
 12 14  1  0
 14 15  1  0
 15 16  2  0
 17 15  1  1
 17 18  1  0
 17 22  1  0
 18 19  1  0
 19 20  1  0
 20 21  2  0
 20 22  1  0
 23 24  1  0
 23 38  1  0
 24 25  2  0
 24 37  1  0
 25 26  1  0
 26 27  2  0
 27 28  1  0
 27 31  1  0
 28 29  1  0
 29 30  1  0
 31 32  1  0
 31 37  2  0
 32 33  1  0
 33 34  1  1
 33 35  1  0
 35 36  1  0
 38 39  2  0
 38 40  1  0
M  END
