
     RDKit          3D

 40 42  0  0  0  0  0  0  0  0999 V2000
   -7.7640   -2.5280   -1.2920 C   0  0  0  0  0  0  0  0  0  0  0  0
   -7.6190   -1.9160   -0.1710 C   0  0  0  0  0  0  0  0  0  0  0  0
   -6.8740   -0.7620    0.2400 C   0  0  0  0  0  0  0  0  0  0  0  0
   -7.0590   -0.4680    1.5710 C   0  0  0  0  0  0  0  0  0  0  0  0
   -6.4410    0.6460    2.2810 C   0  0  0  0  0  0  0  0  0  0  0  0
   -6.1390    1.8510    1.8460 C   0  0  0  0  0  0  0  0  0  0  0  0
   -6.3880    2.5050    0.2560 S   0  0  1  0  0  0  0  0  0  0  0  0
   -7.6930    3.2890    0.2280 O   0  0  0  0  0  0  0  0  0  0  0  0
   -5.3070    3.5250   -0.0700 O   0  0  0  0  0  0  0  0  0  0  0  0
   -6.4990    1.3260   -0.9860 N   0  0  0  0  0  0  0  0  0  0  0  0
   -5.9890    0.0400   -0.5860 C   0  0  2  0  0  0  0  0  0  0  0  0
   -5.3250   -0.6600   -1.7000 C   0  0  2  0  0  0  0  0  0  0  0  0
   -4.8600   -1.9560   -1.3560 O   0  0  0  0  0  0  0  0  0  0  0  0
   -4.0370    0.0580   -2.1600 C   0  0  0  0  0  0  0  0  0  0  0  0
   -3.0770    0.0400   -1.0920 N   0  0  0  0  0  0  0  0  0  0  0  0
   -1.7760    0.6450   -1.2840 C   0  0  0  0  0  0  0  0  0  0  0  0
   -1.5450    1.1620   -2.3840 O   0  0  0  0  0  0  0  0  0  0  0  0
   -0.7800    0.6340   -0.2020 C   0  0  2  0  0  0  0  0  0  0  0  0
    0.5110    1.2740   -0.5360 C   0  0  0  0  0  0  0  0  0  0  0  0
    0.3800    2.7170   -0.8790 C   0  0  0  0  0  0  0  0  0  0  0  0
    1.8060    3.2090   -1.1850 C   0  0  0  0  0  0  0  0  0  0  0  0
   -0.6540   -0.7280    0.4440 C   0  0  0  0  0  0  0  0  0  0  0  0
   -0.2530   -1.8240   -0.4710 C   0  0  0  0  0  0  0  0  0  0  0  0
    1.0070   -1.6980   -1.1200 N   0  0  0  0  0  0  0  0  0  0  0  0
    2.2400   -1.6010   -0.3740 C   0  0  0  0  0  0  0  0  0  0  0  0
    2.1640   -1.6240    0.8530 O   0  0  0  0  0  0  0  0  0  0  0  0
    3.4780   -1.4880   -1.0100 N   0  0  0  0  0  0  0  0  0  0  0  0
    4.7580   -1.3810   -0.4190 C   0  0  0  0  0  0  0  0  0  0  0  0
    4.9530   -1.2850    0.9300 C   0  0  0  0  0  0  0  0  0  0  0  0
    6.2170   -1.1700    1.5160 C   0  0  0  0  0  0  0  0  0  0  0  0
    6.4180   -1.0480    2.9820 C   0  0  0  0  0  0  0  0  0  0  0  0
    6.5630    0.4230    3.2900 C   0  0  0  0  0  0  0  0  0  0  0  0
    6.5260    1.4310    2.4300 C   0  0  0  0  0  0  0  0  0  0  0  0
    6.7140    2.6810    3.1950 C   0  0  0  0  0  0  0  0  0  0  0  0
    6.9420    2.2790    4.4220 C   0  0  0  0  0  0  0  0  0  0  0  0
    6.7720    0.9830    4.6200 C   0  0  0  0  0  0  0  0  0  0  0  0
    7.3070   -1.1540    0.6750 C   0  0  0  0  0  0  0  0  0  0  0  0
    7.1150   -1.2490   -0.6910 C   0  0  0  0  0  0  0  0  0  0  0  0
    5.8720   -1.3620   -1.2580 C   0  0  0  0  0  0  0  0  0  0  0  0
    5.7060   -1.4680   -2.7420 C   0  0  0  0  0  0  0  0  0  0  0  0
  1  2  2  0
  2  3  1  0
  3  4  2  0
  3 11  1  0
  4  5  1  0
  5  6  2  0
  6  7  1  0
  7  8  2  0
  7  9  2  0
  7 10  1  6
 11 10  1  6
 11 12  1  0
 12 13  1  1
 12 14  1  0
 14 15  1  0
 15 16  1  0
 16 17  2  0
 16 18  1  0
 18 19  1  6
 18 22  1  0
 19 20  1  0
 20 21  1  0
 22 23  1  0
 23 24  1  0
 24 25  1  0
 25 26  2  0
 25 27  1  0
 27 28  1  0
 28 29  2  0
 28 39  1  0
 29 30  1  0
 30 31  1  0
 30 37  2  0
 31 32  1  0
 32 33  2  0
 32 36  1  0
 33 34  1  0
 34 35  2  0
 35 36  2  0
 37 38  1  0
 38 39  2  0
 39 40  1  0
M  END
