
     RDKit          3D

 40 42  0  0  0  0  0  0  0  0999 V2000
   -0.1280   -6.1720    3.3020 C   0  0  0  0  0  0  0  0  0  0  0  0
   -0.8500   -5.4530    2.2290 C   0  0  0  0  0  0  0  0  0  0  0  0
   -0.3770   -4.2610    1.8400 C   0  0  0  0  0  0  0  0  0  0  0  0
   -1.1000   -3.5550    0.7750 C   0  0  0  0  0  0  0  0  0  0  0  0
   -0.7580   -2.3850    0.2920 C   0  0  0  0  0  0  0  0  0  0  0  0
    0.4650   -1.7210    0.8730 C   0  0  0  0  0  0  0  0  0  0  0  0
   -1.5940   -1.7120   -0.7190 C   0  0  0  0  0  0  0  0  0  0  0  0
   -2.8130   -2.3860   -1.1230 C   0  0  0  0  0  0  0  0  0  0  0  0
   -3.6450   -1.8890   -2.1790 N   0  0  0  0  0  0  0  0  0  0  0  0
   -3.2120   -3.4380   -0.5940 O   0  0  0  0  0  0  0  0  0  0  0  0
   -1.3120   -0.5600   -1.2980 C   0  0  0  0  0  0  0  0  0  0  0  0
   -0.2060    0.3030   -1.1620 N   0  0  0  0  0  0  0  0  0  0  0  0
   -0.1120    1.5450   -1.9300 C   0  0  0  0  0  0  0  0  0  0  0  0
   -1.0380    1.8050   -2.7080 O   0  0  0  0  0  0  0  0  0  0  0  0
    1.0400    2.4390   -1.7720 C   0  0  1  0  0  0  0  0  0  0  0  0
    0.6370    3.7970   -1.2240 C   0  0  0  0  0  0  0  0  0  0  0  0
    2.0150    1.8260   -0.9450 O   0  0  0  0  0  0  0  0  0  0  0  0
    3.3130    1.6300   -1.4300 C   0  0  0  0  0  0  0  0  0  0  0  0
    3.5240    2.0380   -2.6140 O   0  0  0  0  0  0  0  0  0  0  0  0
    4.3590    1.0020   -0.6430 C   0  0  0  0  0  0  0  0  0  0  0  0
    4.2080    0.5470    0.5750 C   0  0  0  0  0  0  0  0  0  0  0  0
    5.2510   -0.0860    1.3750 C   0  0  0  0  0  0  0  0  0  0  0  0
    5.0940   -0.5810    2.6750 C   0  0  0  0  0  0  0  0  0  0  0  0
    3.8050   -0.5390    3.4350 C   0  0  0  0  0  0  0  0  0  0  0  0
    6.2660   -1.0660    3.0470 N   0  0  0  0  0  0  0  0  0  0  0  0
    7.2030   -0.9210    2.0640 C   0  0  0  0  0  0  0  0  0  0  0  0
    6.5760   -0.3110    1.0180 C   0  0  0  0  0  0  0  0  0  0  0  0
    7.5520   -0.1240   -0.1100 C   0  0  0  0  0  0  0  0  0  0  0  0
    8.7270   -0.9710    0.2630 C   0  0  0  0  0  0  0  0  0  0  0  0
    8.6270   -1.1760    1.7350 C   0  0  0  0  0  0  0  0  0  0  0  0
   -2.6970    0.1500   -2.3190 S   0  0  0  0  0  0  0  0  0  0  0  0
   -3.8310    1.0290   -1.2010 C   0  0  1  0  0  0  0  0  0  0  0  0
   -3.2560    2.2480   -0.5690 C   0  0  0  0  0  0  0  0  0  0  0  0
   -5.0550    1.3540   -1.9540 C   0  0  0  0  0  0  0  0  0  0  0  0
   -5.1810    0.9820   -3.1360 O   0  0  0  0  0  0  0  0  0  0  0  0
   -6.0830    2.0840   -1.3370 N   0  0  0  0  0  0  0  0  0  0  0  0
   -7.3290    2.4390   -2.0100 C   0  0  2  0  0  0  0  0  0  0  0  0
   -7.3980    3.9760   -2.0990 C   0  0  0  0  0  0  0  0  0  0  0  0
   -8.1950    3.9410   -0.8170 C   0  0  0  0  0  0  0  0  0  0  0  0
   -8.5490    2.5040   -1.1280 C   0  0  0  0  0  0  0  0  0  0  0  0
  1  2  1  0
  2  3  2  3
  3  4  1  0
  4  5  2  3
  5  6  1  0
  5  7  1  0
  7  8  1  0
  7 11  2  3
  8  9  1  0
  8 10  2  0
 11 12  1  0
 11 31  1  0
 12 13  1  0
 13 14  2  0
 13 15  1  0
 15 16  1  1
 15 17  1  0
 17 18  1  0
 18 19  2  0
 18 20  1  0
 20 21  2  3
 21 22  1  0
 22 23  2  0
 22 27  1  0
 23 24  1  0
 23 25  1  0
 25 26  1  0
 26 27  2  0
 26 30  1  0
 27 28  1  0
 28 29  1  0
 29 30  1  0
 31 32  1  0
 32 33  1  6
 32 34  1  0
 34 35  2  0
 34 36  1  0
 37 36  1  1
 37 38  1  0
 37 40  1  0
 38 39  1  0
 39 40  1  0
M  END
