
     RDKit          3D

 40 42  0  0  0  0  0  0  0  0999 V2000
    0.5730   -0.6080   -2.7380 C   0  0  0  0  0  0  0  0  0  0  0  0
   -0.3450   -0.7540   -1.4810 C   0  0  0  0  0  0  0  0  0  0  0  0
   -0.1440    0.4760   -0.6770 C   0  0  1  0  0  0  0  0  0  0  0  0
   -0.8390    0.6510    0.6090 C   0  0  0  0  0  0  0  0  0  0  0  0
   -2.2890    0.6250    0.6210 N   0  0  0  0  0  0  0  0  0  0  0  0
   -3.1080   -0.4650    0.3720 C   0  0  0  0  0  0  0  0  0  0  0  0
   -2.4940   -1.5720    0.1320 O   0  0  0  0  0  0  0  0  0  0  0  0
   -4.5370   -0.4980    0.3520 C   0  0  0  0  0  0  0  0  0  0  0  0
   -5.0020   -1.7620    0.0660 C   0  0  0  0  0  0  0  0  0  0  0  0
   -6.3680   -2.1520   -0.0210 C   0  0  0  0  0  0  0  0  0  0  0  0
   -7.2790   -2.1450    1.0380 C   0  0  0  0  0  0  0  0  0  0  0  0
   -8.5520   -2.5200    0.8550 N   0  0  0  0  0  0  0  0  0  0  0  0
   -9.0630   -2.9270   -0.3200 C   0  0  0  0  0  0  0  0  0  0  0  0
   -8.2010   -2.9520   -1.3960 C   0  0  0  0  0  0  0  0  0  0  0  0
   -6.8840   -2.5730   -1.2520 C   0  0  0  0  0  0  0  0  0  0  0  0
   -5.9500   -2.5960   -2.4040 C   0  0  0  0  0  0  0  0  0  0  0  0
   -5.5400    0.5080    0.4730 C   0  0  0  0  0  0  0  0  0  0  0  0
   -6.7850    0.1980    0.2550 O   0  0  0  0  0  0  0  0  0  0  0  0
   -5.3960    1.8630    0.8130 N   0  0  0  0  0  0  0  0  0  0  0  0
   -6.5550    2.7710    0.8880 C   0  0  0  0  0  0  0  0  0  0  0  0
   -6.0580    4.1020    1.2650 C   0  0  0  0  0  0  0  0  0  0  0  0
   -6.9580    5.1860    1.4130 N   0  0  0  0  0  0  0  0  0  0  0  0
   -4.8370    4.3290    1.4660 O   0  0  0  0  0  0  0  0  0  0  0  0
    1.3240    0.5620   -0.3870 C   0  0  0  0  0  0  0  0  0  0  0  0
    2.0490    1.5950   -0.8870 C   0  0  0  0  0  0  0  0  0  0  0  0
    3.4340    1.6710   -0.6060 C   0  0  0  0  0  0  0  0  0  0  0  0
    4.0040    0.7120    0.1560 C   0  0  0  0  0  0  0  0  0  0  0  0
    3.2400   -0.3460    0.6610 C   0  0  0  0  0  0  0  0  0  0  0  0
    1.8930   -0.4190    0.3870 C   0  0  0  0  0  0  0  0  0  0  0  0
    3.8860   -1.4010    1.4510 C   0  0  0  0  0  0  0  0  0  0  0  0
    5.2820   -1.7150    1.1150 C   0  0  0  0  0  0  0  0  0  0  0  0
    5.9480   -0.6450    0.1570 C   0  0  2  0  0  0  0  0  0  0  0  0
    5.2610   -0.9540   -1.0810 O   0  0  0  0  0  0  0  0  0  0  0  0
    7.2910   -1.1410   -0.0010 C   0  0  0  0  0  0  0  0  0  0  0  0
    8.3840   -0.5870   -0.7910 C   0  0  0  0  0  0  0  0  0  0  0  0
    9.0730    0.9520   -0.2560 S   0  0  0  0  0  0  0  0  0  0  0  0
    9.2030    1.9800   -1.3600 O   0  0  0  0  0  0  0  0  0  0  0  0
    5.4730    0.6760    0.5420 C   0  0  1  0  0  0  0  0  0  0  0  0
    6.1450    1.8200   -0.1320 C   0  0  0  0  0  0  0  0  0  0  0  0
    5.4840    0.8880    2.0650 C   0  0  0  0  0  0  0  0  0  0  0  0
  1  2  1  0
  3  2  1  1
  3  4  1  0
  3 24  1  0
  4  5  1  0
  5  6  1  0
  6  7  2  0
  6  8  1  0
  8  9  2  3
  8 17  1  0
  9 10  1  0
 10 11  2  0
 10 15  1  0
 11 12  1  0
 12 13  2  0
 13 14  1  0
 14 15  2  0
 15 16  1  0
 17 18  2  0
 17 19  1  0
 19 20  1  0
 20 21  1  0
 21 22  1  0
 21 23  2  0
 24 25  2  0
 24 29  1  0
 25 26  1  0
 26 27  2  0
 27 28  1  0
 27 38  1  0
 28 29  2  0
 28 30  1  0
 30 31  1  0
 31 32  1  0
 32 33  1  6
 32 34  1  0
 32 38  1  0
 34 35  1  0
 35 36  1  0
 36 37  2  0
 38 39  1  6
 38 40  1  0
M  END
