
     RDKit          3D

 31 34  0  0  0  0  0  0  0  0999 V2000
   -6.9350    3.0240   -0.6740 C   0  0  0  0  0  0  0  0  0  0  0  0
   -6.9340    1.5850   -0.2640 C   0  0  0  0  0  0  0  0  0  0  0  0
   -5.8110    0.8950   -0.3640 C   0  0  0  0  0  0  0  0  0  0  0  0
   -4.6430    1.4520   -0.8320 C   0  0  0  0  0  0  0  0  0  0  0  0
   -3.4590    0.7510   -0.9450 C   0  0  0  0  0  0  0  0  0  0  0  0
   -2.2730    1.4180   -1.4630 C   0  0  0  0  0  0  0  0  0  0  0  0
   -2.4470    2.3850   -2.2830 O   0  0  0  0  0  0  0  0  0  0  0  0
   -0.9300    1.0150   -1.0760 C   0  0  0  0  0  0  0  0  0  0  0  0
    0.1590    1.1820   -1.9010 C   0  0  0  0  0  0  0  0  0  0  0  0
    1.4470    0.7960   -1.4940 C   0  0  0  0  0  0  0  0  0  0  0  0
    1.6520    0.2440   -0.2660 C   0  0  0  0  0  0  0  0  0  0  0  0
    2.9850   -0.1780    0.2240 C   0  0  0  0  0  0  0  0  0  0  0  0
    3.0390   -0.9030    1.2390 O   0  0  0  0  0  0  0  0  0  0  0  0
    4.1830    0.2210   -0.4270 N   0  0  0  0  0  0  0  0  0  0  0  0
    5.5060   -0.1150   -0.0570 C   0  0  0  0  0  0  0  0  0  0  0  0
    5.8310   -0.8660    1.0670 C   0  0  0  0  0  0  0  0  0  0  0  0
    7.1230   -1.1900    1.4420 C   0  0  0  0  0  0  0  0  0  0  0  0
    7.3070   -2.0020    2.6720 C   0  0  0  0  0  0  0  0  0  0  0  0
    8.1560   -0.7520    0.6730 C   0  0  0  0  0  0  0  0  0  0  0  0
    7.8900   -0.0100   -0.4420 C   0  0  0  0  0  0  0  0  0  0  0  0
    6.5740    0.3140   -0.8170 C   0  0  0  0  0  0  0  0  0  0  0  0
    6.4420    1.0890   -2.0110 C   0  0  0  0  0  0  0  0  0  0  0  0
    5.4030    1.4940   -2.5600 O   0  0  0  0  0  0  0  0  0  0  0  0
    0.5540    0.0820    0.5510 C   0  0  0  0  0  0  0  0  0  0  0  0
   -0.7370    0.4590    0.1680 C   0  0  0  0  0  0  0  0  0  0  0  0
   -3.4630   -0.5720   -0.5670 C   0  0  0  0  0  0  0  0  0  0  0  0
   -4.6450   -1.1540   -0.0880 C   0  0  0  0  0  0  0  0  0  0  0  0
   -5.8130   -0.4360    0.0160 C   0  0  0  0  0  0  0  0  0  0  0  0
   -6.7800   -1.2040    0.4910 C   0  0  0  0  0  0  0  0  0  0  0  0
   -6.3160   -2.5030    0.7390 N   0  0  0  0  0  0  0  0  0  0  0  0
   -4.9380   -2.5270    0.3810 C   0  0  0  0  0  0  0  0  0  0  0  0
  1  2  1  0
  2  3  2  3
  3  4  1  0
  3 28  1  0
  4  5  2  0
  5  6  1  0
  5 26  1  0
  6  7  2  0
  6  8  1  0
  8  9  2  0
  8 25  1  0
  9 10  1  0
 10 11  2  0
 11 12  1  0
 11 24  1  0
 12 13  2  0
 12 14  1  0
 14 15  1  0
 15 16  2  0
 15 21  1  0
 16 17  1  0
 17 18  1  0
 17 19  2  0
 19 20  1  0
 20 21  2  0
 21 22  1  0
 22 23  2  0
 24 25  2  0
 26 27  2  0
 27 28  1  0
 27 31  1  0
 28 29  2  0
 29 30  1  0
 30 31  1  0
M  CHG  1  30   1
M  END
