
     RDKit          3D

 31 34  0  0  0  0  0  0  0  0999 V2000
   -6.3540   -2.3520    1.1820 C   0  0  0  0  0  0  0  0  0  0  0  0
   -5.1710   -1.8200    0.4880 C   0  0  0  0  0  0  0  0  0  0  0  0
   -5.2910   -1.4960   -0.8810 C   0  0  0  0  0  0  0  0  0  0  0  0
   -4.2260   -1.0110   -1.6130 C   0  0  0  0  0  0  0  0  0  0  0  0
   -3.0050   -0.8360   -1.0020 C   0  0  0  0  0  0  0  0  0  0  0  0
   -2.8740   -1.1480    0.3200 C   0  0  0  0  0  0  0  0  0  0  0  0
   -1.5420   -0.9730    0.9620 C   0  0  0  0  0  0  0  0  0  0  0  0
   -0.7830    0.1730    0.1630 C   0  0  0  0  0  0  0  0  0  0  0  0
    0.3510   -0.0160   -0.1860 N   0  0  0  0  0  0  0  0  0  0  0  0
    1.6320   -0.1670   -0.6070 C   0  0  0  0  0  0  0  0  0  0  0  0
    1.8960   -0.0450   -1.8760 O   0  0  0  0  0  0  0  0  0  0  0  0
    2.8740   -0.4810    0.1440 C   0  0  0  0  0  0  0  0  0  0  0  0
    3.5000   -1.7170   -0.1050 C   0  0  0  0  0  0  0  0  0  0  0  0
    4.5730   -2.2010    0.5850 C   0  0  0  0  0  0  0  0  0  0  0  0
    5.1900   -3.5220    0.3050 C   0  0  0  0  0  0  0  0  0  0  0  0
    6.2740   -3.3400   -0.6250 N   0  0  0  0  0  0  0  0  0  0  0  0
    5.1040   -1.4440    1.6000 C   0  0  0  0  0  0  0  0  0  0  0  0
    4.5200   -0.2320    1.8600 C   0  0  0  0  0  0  0  0  0  0  0  0
    3.4180    0.2760    1.1570 C   0  0  0  0  0  0  0  0  0  0  0  0
    2.9340    1.5390    1.5210 O   0  0  0  0  0  0  0  0  0  0  0  0
    2.9430    2.6890    0.6240 C   0  0  0  0  0  0  0  0  0  0  0  0
    1.5700    2.9860    0.3810 C   0  0  0  0  0  0  0  0  0  0  0  0
    0.5270    3.2150    0.2120 C   0  0  0  0  0  0  0  0  0  0  0  0
   -0.7950    3.5100    0.0190 C   0  0  0  0  0  0  0  0  0  0  0  0
   -1.1110    4.8580   -0.0960 C   0  0  0  0  0  0  0  0  0  0  0  0
   -2.3680    5.3050   -0.3250 C   0  0  0  0  0  0  0  0  0  0  0  0
   -3.3720    4.3700   -0.4530 C   0  0  0  0  0  0  0  0  0  0  0  0
   -3.0560    3.0410   -0.3410 C   0  0  0  0  0  0  0  0  0  0  0  0
   -1.8060    2.5300   -0.1050 C   0  0  0  0  0  0  0  0  0  0  0  0
   -1.5790    1.2140   -0.0020 O   0  0  0  0  0  0  0  0  0  0  0  0
   -3.9210   -1.6240    1.0360 C   0  0  0  0  0  0  0  0  0  0  0  0
  1  2  1  0
  2  3  2  0
  2 31  1  0
  3  4  1  0
  4  5  2  0
  5  6  1  0
  6  7  1  0
  6 31  2  0
  7  8  1  0
  8  9  2  0
  8 30  1  0
  9 10  1  0
 10 11  2  0
 10 12  1  0
 12 13  2  0
 12 19  1  0
 13 14  1  0
 14 15  1  0
 14 17  2  0
 15 16  1  0
 17 18  1  0
 18 19  2  0
 19 20  1  0
 20 21  1  0
 21 22  1  0
 22 23  3  0
 23 24  1  0
 24 25  2  0
 24 29  1  0
 25 26  1  0
 26 27  2  0
 27 28  1  0
 28 29  2  0
 29 30  1  0
M  CHG  1  16   1
M  END
