
     RDKit          3D

 31 34  0  0  0  0  0  0  0  0999 V2000
   -3.2010    4.6830   -0.0560 C   0  0  0  0  0  0  0  0  0  0  0  0
   -2.4670    3.3360   -0.0070 C   0  0  0  0  0  0  0  0  0  0  0  0
   -3.4150    2.3720    0.6650 C   0  0  0  0  0  0  0  0  0  0  0  0
   -2.8860    1.0420    0.8000 N   0  0  0  0  0  0  0  0  0  0  0  0
   -3.2020    0.1760   -0.3600 C   0  0  0  0  0  0  0  0  0  0  0  0
   -4.4220   -0.6320   -0.1170 C   0  0  0  0  0  0  0  0  0  0  0  0
   -4.5450   -1.8840   -0.4610 C   0  0  0  0  0  0  0  0  0  0  0  0
   -3.6240   -2.7770   -1.1150 C   0  0  0  0  0  0  0  0  0  0  0  0
   -2.6140   -3.5230   -0.7060 C   0  0  0  0  0  0  0  0  0  0  0  0
   -1.9230   -3.8440    0.4830 C   0  0  0  0  0  0  0  0  0  0  0  0
   -0.7380   -3.6370    1.0400 C   0  0  0  0  0  0  0  0  0  0  0  0
    0.4670   -2.9320    0.6360 C   0  0  0  0  0  0  0  0  0  0  0  0
    1.6050   -3.7070    0.3510 C   0  0  0  0  0  0  0  0  0  0  0  0
    2.7880   -3.1850   -0.1020 C   0  0  0  0  0  0  0  0  0  0  0  0
    3.9690   -4.0790   -0.3860 C   0  0  0  0  0  0  0  0  0  0  0  0
    4.7340   -4.1390    0.8410 N   0  0  0  0  0  0  0  0  0  0  0  0
    2.8790   -1.8310   -0.2910 C   0  0  0  0  0  0  0  0  0  0  0  0
    1.7660   -1.0220   -0.0160 C   0  0  0  0  0  0  0  0  0  0  0  0
    1.9910    0.3910   -0.2770 C   0  0  0  0  0  0  0  0  0  0  0  0
    1.0700    1.3880   -0.1130 C   0  0  0  0  0  0  0  0  0  0  0  0
    1.6740    2.5930   -0.4710 C   0  0  0  0  0  0  0  0  0  0  0  0
    2.9540    2.2540   -0.8390 C   0  0  0  0  0  0  0  0  0  0  0  0
    3.9610    3.2560   -1.3000 C   0  0  2  0  0  0  0  0  0  0  0  0
    3.7320    4.6670   -0.7520 C   0  0  0  0  0  0  0  0  0  0  0  0
    3.4250    4.3550   -2.1600 C   0  0  0  0  0  0  0  0  0  0  0  0
    3.0770    0.9750   -0.7070 O   0  0  0  0  0  0  0  0  0  0  0  0
    0.5720   -1.5370    0.4430 C   0  0  0  0  0  0  0  0  0  0  0  0
   -0.4840   -0.6980    0.7120 O   0  0  0  0  0  0  0  0  0  0  0  0
   -1.2030   -0.5700    1.9330 C   0  0  0  0  0  0  0  0  0  0  0  0
   -2.1440    0.5720    1.9080 C   0  0  0  0  0  0  0  0  0  0  0  0
   -2.2710    1.1600    3.0020 O   0  0  0  0  0  0  0  0  0  0  0  0
  1  2  1  0
  2  3  1  0
  3  4  1  0
  4  5  1  0
  4 30  1  0
  5  6  1  0
  6  7  2  0
  7  8  1  0
  8  9  2  0
  9 10  1  0
 10 11  2  0
 11 12  1  0
 12 13  2  0
 12 27  1  0
 13 14  1  0
 14 15  1  0
 14 17  2  0
 15 16  1  0
 17 18  1  0
 18 19  1  0
 18 27  2  0
 19 20  2  0
 19 26  1  0
 20 21  1  0
 21 22  2  0
 23 22  1  1
 22 26  1  0
 23 24  1  0
 23 25  1  0
 24 25  1  0
 27 28  1  0
 28 29  1  0
 29 30  1  0
 30 31  2  0
M  CHG  1  16   1
M  END
