
     RDKit          3D

 28 29  0  0  0  0  0  0  0  0999 V2000
    0.8300    4.5540   -2.4260 C   0  0  0  0  0  0  0  0  0  0  0  0
    1.7950    3.4020   -2.1370 C   0  0  0  0  0  0  0  0  0  0  0  0
    1.0350    2.4510   -1.3870 O   0  0  0  0  0  0  0  0  0  0  0  0
    1.6300    1.2530   -0.9530 C   0  0  0  0  0  0  0  0  0  0  0  0
    2.8010    1.0860   -1.2520 O   0  0  0  0  0  0  0  0  0  0  0  0
    0.7780    0.2760   -0.1570 C   0  0  0  0  0  0  0  0  0  0  0  0
   -0.5660    0.7090    0.0050 C   0  0  0  0  0  0  0  0  0  0  0  0
   -0.7420    1.8680   -0.7290 O   0  0  0  0  0  0  0  0  0  0  0  0
   -1.7610    0.4350    0.6090 N   0  0  0  0  0  0  0  0  0  0  0  0
   -2.2860   -0.4860    1.5560 C   0  0  0  0  0  0  0  0  0  0  0  0
   -3.0950   -1.5090    0.7990 C   0  0  0  0  0  0  0  0  0  0  0  0
   -3.7670   -0.8420   -0.3550 N   0  0  0  0  0  0  0  0  0  0  0  0
   -4.8930   -1.6700   -0.7510 C   0  0  0  0  0  0  0  0  0  0  0  0
   -5.6190   -1.0250   -2.2180 Cl  0  0  0  0  0  0  0  0  0  0  0  0
   -4.1220    0.4680    0.1030 C   0  0  2  0  0  0  0  0  0  0  0  0
   -5.1320    1.1680   -0.7620 C   0  0  0  0  0  0  0  0  0  0  0  0
   -2.9040    1.3530    0.1430 C   0  0  0  0  0  0  0  0  0  0  0  0
    1.4510   -0.7640    0.2770 C   0  0  0  0  0  0  0  0  0  0  0  0
    0.8230   -1.8570    1.0480 C   0  0  0  0  0  0  0  0  0  0  0  0
    1.4710   -1.6370    2.7550 S   0  0  0  0  0  0  0  0  0  0  0  0
    3.2600   -1.8300    2.4420 C   0  0  0  0  0  0  0  0  0  0  0  0
    4.3160   -2.1090    3.6100 S   0  0  0  0  0  0  0  0  0  0  0  0
    3.6000   -1.7320    1.0650 N   0  0  0  0  0  0  0  0  0  0  0  0
    4.7150   -2.5420    0.5320 C   0  0  0  0  0  0  0  0  0  0  0  0
    6.0250   -2.0850    1.0270 C   0  0  0  0  0  0  0  0  0  0  0  0
    6.1020   -1.0600    1.7240 O   0  0  0  0  0  0  0  0  0  0  0  0
    7.1600   -2.7950    0.7180 O   0  0  0  0  0  0  0  0  0  0  0  0
    2.9460   -0.8510    0.1330 C   0  0  0  0  0  0  0  0  0  0  0  0
  1  2  1  0
  2  3  1  0
  3  4  1  0
  4  5  2  0
  4  6  1  0
  6  7  1  0
  6 18  2  3
  7  8  2  0
  7  9  1  0
  9 10  1  0
  9 17  1  0
 10 11  1  0
 11 12  1  0
 12 13  1  0
 12 15  1  0
 13 14  1  0
 15 16  1  6
 15 17  1  0
 18 19  1  0
 18 28  1  0
 19 20  1  0
 20 21  1  0
 21 22  2  0
 21 23  1  0
 23 24  1  0
 23 28  1  0
 24 25  1  0
 25 26  2  0
 25 27  1  0
M  END
