
     RDKit          3D

 27 28  0  0  0  0  0  0  0  0999 V2000
   -3.9560   -2.5810   -1.1510 C   0  0  0  0  0  0  0  0  0  0  0  0
   -4.0420   -1.2480   -1.5290 O   0  0  0  0  0  0  0  0  0  0  0  0
   -4.6010   -0.2230   -0.7820 C   0  0  0  0  0  0  0  0  0  0  0  0
   -5.8840    0.0190   -1.0620 C   0  0  0  0  0  0  0  0  0  0  0  0
   -6.6720    1.0290   -0.4130 C   0  0  0  0  0  0  0  0  0  0  0  0
   -8.2360    1.3260   -0.7600 S   0  0  0  0  0  0  0  0  0  0  0  0
   -6.0510    1.8050    0.5820 N   0  0  0  0  0  0  0  0  0  0  0  0
   -4.7180    1.5650    0.8940 C   0  0  0  0  0  0  0  0  0  0  0  0
   -4.1750    2.2560    1.8100 O   0  0  0  0  0  0  0  0  0  0  0  0
   -3.8410    0.5250    0.2210 C   0  0  1  0  0  0  0  0  0  0  0  0
   -3.5300   -0.4540    1.3460 C   0  0  0  0  0  0  0  0  0  0  0  0
   -2.6480    1.2780   -0.2250 C   0  0  0  0  0  0  0  0  0  0  0  0
   -1.5610    0.6280   -0.8280 N   0  0  0  0  0  0  0  0  0  0  0  0
   -1.6080    0.0750   -2.1540 C   0  0  0  0  0  0  0  0  0  0  0  0
   -0.2860    0.4520   -0.1380 C   0  0  0  0  0  0  0  0  0  0  0  0
    0.4660    1.3060    0.3640 N   0  0  0  0  0  0  0  0  0  0  0  0
    1.6500    0.9560    0.9870 C   0  0  0  0  0  0  0  0  0  0  0  0
    2.4100    1.8540    1.5160 O   0  0  0  0  0  0  0  0  0  0  0  0
    1.9690   -0.4660    1.0030 C   0  0  2  0  0  0  0  0  0  0  0  0
    3.1420   -0.8910    0.1670 C   0  0  0  0  0  0  0  0  0  0  0  0
    4.3790   -0.2700    0.6300 C   0  0  0  0  0  0  0  0  0  0  0  0
    4.4420    0.4350    1.6360 O   0  0  0  0  0  0  0  0  0  0  0  0
    5.5430   -0.4950   -0.1110 O   0  0  0  0  0  0  0  0  0  0  0  0
    6.7780    0.0820    0.2960 C   0  0  1  0  0  0  0  0  0  0  0  0
    7.7840   -1.0110    0.4450 C   0  0  0  0  0  0  0  0  0  0  0  0
    7.1520    1.0950   -0.7870 C   0  0  0  0  0  0  0  0  0  0  0  0
    0.4960   -1.1320    0.1310 S   0  0  0  0  0  0  0  0  0  0  0  0
  1  2  1  0
  2  3  1  0
  3  4  2  0
  3 10  1  0
  4  5  1  0
  5  6  2  0
  5  7  1  0
  7  8  1  0
  8  9  2  0
  8 10  1  0
 10 11  1  1
 10 12  1  0
 12 13  1  0
 13 14  1  0
 13 15  1  0
 15 16  2  0
 15 27  1  0
 16 17  1  0
 17 18  2  0
 17 19  1  0
 19 20  1  6
 19 27  1  0
 20 21  1  0
 21 22  2  0
 21 23  1  0
 23 24  1  0
 24 25  1  6
 24 26  1  0
M  END
