
     RDKit          3D

 28 30  0  0  0  0  0  0  0  0999 V2000
   -5.0600   -1.4930   -0.3020 C   0  0  0  0  0  0  0  0  0  0  0  0
   -3.9880   -0.9050    0.5860 C   0  0  2  0  0  0  0  0  0  0  0  0
   -4.6660   -0.2660    1.7870 C   0  0  0  0  0  0  0  0  0  0  0  0
   -5.3510    0.8770    1.4460 O   0  0  0  0  0  0  0  0  0  0  0  0
   -4.5750    1.8470    0.8510 C   0  0  0  0  0  0  0  0  0  0  0  0
   -3.8560    1.3640   -0.3880 C   0  0  0  0  0  0  0  0  0  0  0  0
   -3.2310    0.1130   -0.0750 N   0  0  0  0  0  0  0  0  0  0  0  0
   -1.8820   -0.1030   -0.4180 C   0  0  0  0  0  0  0  0  0  0  0  0
   -1.3490   -1.2060   -0.1350 O   0  0  0  0  0  0  0  0  0  0  0  0
   -1.0500    0.9150   -1.1030 C   0  0  0  0  0  0  0  0  0  0  0  0
    0.2790    0.3500   -1.2970 N   0  0  0  0  0  0  0  0  0  0  0  0
    0.5910   -0.3680   -2.4630 C   0  0  0  0  0  0  0  0  0  0  0  0
   -0.2640   -0.5490   -3.3800 O   0  0  0  0  0  0  0  0  0  0  0  0
    1.9680   -0.9180   -2.5960 C   0  0  0  0  0  0  0  0  0  0  0  0
    2.1840   -1.5860   -3.7280 C   0  0  0  0  0  0  0  0  0  0  0  0
    3.6850   -2.3610   -4.2070 S   0  0  0  0  0  0  0  0  0  0  0  0
    4.7240   -2.7530   -2.7440 C   0  0  0  0  0  0  0  0  0  0  0  0
    4.6320   -1.3410   -1.6440 S   0  0  0  0  0  0  0  0  0  0  0  0
    2.9490   -0.7200   -1.5630 C   0  0  0  0  0  0  0  0  0  0  0  0
    2.6150   -0.0230   -0.4510 C   0  0  0  0  0  0  0  0  0  0  0  0
    3.6740    0.1300    0.5480 C   0  0  0  0  0  0  0  0  0  0  0  0
    4.8300   -0.3660    0.3690 O   0  0  0  0  0  0  0  0  0  0  0  0
    3.4650    0.8330    1.7530 N   0  0  0  0  0  0  0  0  0  0  0  0
    4.5560    0.9570    2.7180 C   0  0  0  0  0  0  0  0  0  0  0  0
    4.0670    1.7460    3.9030 C   0  0  0  0  0  0  0  0  0  0  0  0
    5.4080    1.8850    5.0620 Cl  0  0  0  0  0  0  0  0  0  0  0  0
    1.2990    0.5130   -0.3050 C   0  0  0  0  0  0  0  0  0  0  0  0
    0.9530    1.1750    0.7310 O   0  0  0  0  0  0  0  0  0  0  0  0
  2  1  1  6
  2  3  1  0
  2  7  1  0
  3  4  1  0
  4  5  1  0
  5  6  1  0
  6  7  1  0
  7  8  1  0
  8  9  2  0
  8 10  1  0
 10 11  1  0
 11 12  1  0
 11 27  1  0
 12 13  2  0
 12 14  1  0
 14 15  2  0
 14 19  1  0
 15 16  1  0
 16 17  1  0
 17 18  1  0
 18 19  1  0
 19 20  2  0
 20 21  1  0
 20 27  1  0
 21 22  2  0
 21 23  1  0
 23 24  1  0
 24 25  1  0
 25 26  1  0
 27 28  2  0
M  END
