
     RDKit          3D

 10  9  0  0  0  0  0  0  0  0999 V2000
   -0.3340    2.6670   -0.6890 C   0  0  0  0  0  0  0  0  0  0  0  0
   -1.0570    1.6130   -0.4320 C   0  0  0  0  0  0  0  0  0  0  0  0
   -0.6410    0.2760   -0.1760 C   0  0  0  0  0  0  0  0  0  0  0  0
    0.6910   -0.1450   -0.1310 N   0  0  0  0  0  0  0  0  0  0  0  0
    1.7550    0.3970    0.6440 C   0  0  0  0  0  0  0  0  0  0  0  0
    2.9580   -0.5810    0.6650 C   0  0  0  0  0  0  0  0  0  0  0  0
    3.4090   -0.8070   -0.6320 O   0  0  0  0  0  0  0  0  0  0  0  0
   -1.6220   -0.6320    0.0550 C   0  0  0  0  0  0  0  0  0  0  0  0
   -3.0550   -0.3010    0.0530 C   0  0  0  0  0  0  0  0  0  0  0  0
   -1.2110   -2.0380    0.3010 C   0  0  0  0  0  0  0  0  0  0  0  0
  1  2  2  0
  2  3  1  0
  3  4  1  0
  3  8  2  3
  4  5  1  0
  5  6  1  0
  6  7  1  0
  8  9  1  0
  8 10  1  0
M  END
