
     RDKit          3D

 43 45  0  0  0  0  0  0  0  0999 V2000
    5.6260    2.7530    0.1860 C   0  0  0  0  0  0  0  0  0  0  0  0
    5.5820    1.2390    0.1640 C   0  0  1  0  0  0  0  0  0  0  0  0
    6.7550    0.8430   -0.7910 C   0  0  0  0  0  0  0  0  0  0  0  0
    5.8580    0.7290    1.5150 C   0  0  0  0  0  0  0  0  0  0  0  0
    4.3700    0.8780   -0.4590 O   0  0  0  0  0  0  0  0  0  0  0  0
    3.9330   -0.3850   -0.6300 C   0  0  0  0  0  0  0  0  0  0  0  0
    4.7020   -1.2780   -0.1210 O   0  0  0  0  0  0  0  0  0  0  0  0
    2.7190   -0.8210   -1.3180 N   0  0  0  0  0  0  0  0  0  0  0  0
    2.5200   -2.2530   -1.3080 C   0  0  0  0  0  0  0  0  0  0  0  0
    3.1610   -2.8520   -0.3040 O   0  0  0  0  0  0  0  0  0  0  0  0
    1.8150   -3.1210   -2.1150 N   0  0  0  0  0  0  0  0  0  0  0  0
    0.4260   -3.3110   -2.3460 C   0  0  0  0  0  0  0  0  0  0  0  0
    0.1220   -3.5510   -3.5860 O   0  0  0  0  0  0  0  0  0  0  0  0
   -0.6180   -3.2600   -1.4030 N   0  0  0  0  0  0  0  0  0  0  0  0
   -0.8630   -4.1460   -0.2910 C   0  0  0  0  0  0  0  0  0  0  0  0
   -2.3960   -4.3890   -0.3220 C   0  0  0  0  0  0  0  0  0  0  0  0
   -3.0590   -3.2070   -0.4150 O   0  0  0  0  0  0  0  0  0  0  0  0
   -4.2200   -2.9960    0.2280 C   0  0  0  0  0  0  0  0  0  0  0  0
   -4.1050   -2.9800    1.7160 C   0  0  0  0  0  0  0  0  0  0  0  0
   -3.8310   -4.2390    2.3060 O   0  0  0  0  0  0  0  0  0  0  0  0
   -4.2320   -1.9560    2.4650 N   0  0  0  0  0  0  0  0  0  0  0  0
   -4.5010   -0.6260    2.1360 C   0  0  0  0  0  0  0  0  0  0  0  0
   -5.7070   -0.1950    2.4040 O   0  0  0  0  0  0  0  0  0  0  0  0
   -3.6430    0.2410    1.5830 O   0  0  0  0  0  0  0  0  0  0  0  0
   -2.5300    0.1180    0.7700 C   0  0  2  0  0  0  0  0  0  0  0  0
   -1.3940   -0.6830    1.2830 C   0  0  0  0  0  0  0  0  0  0  0  0
   -0.1820   -0.4330    0.4270 C   0  0  0  0  0  0  0  0  0  0  0  0
   -0.3150    0.3190   -0.7760 N   0  0  0  0  0  0  0  0  0  0  0  0
    0.4400   -0.0400   -1.9300 C   0  0  0  0  0  0  0  0  0  0  0  0
    0.1270   -0.5320   -3.0300 O   0  0  0  0  0  0  0  0  0  0  0  0
    1.9400    0.2010   -1.8950 C   0  0  1  0  0  0  0  0  0  0  0  0
    2.0310    1.5310   -1.1230 C   0  0  0  0  0  0  0  0  0  0  0  0
    0.9000    2.3040   -1.5120 O   0  0  0  0  0  0  0  0  0  0  0  0
   -0.0010    2.6120   -0.5560 C   0  0  0  0  0  0  0  0  0  0  0  0
   -1.1290    1.5190   -0.6130 C   0  0  2  0  0  0  0  0  0  0  0  0
   -1.9270    1.5520    0.6570 C   0  0  1  0  0  0  0  0  0  0  0  0
   -2.9610    2.4540    0.8010 N   0  0  0  0  0  0  0  0  0  0  0  0
   -3.6540    3.2110   -0.2530 C   0  0  0  0  0  0  0  0  0  0  0  0
   -3.3650    3.0770   -1.3730 O   0  0  0  0  0  0  0  0  0  0  0  0
   -4.6500    4.0250    0.3940 N   0  0  0  0  0  0  0  0  0  0  0  0
   -5.1500    4.8880   -1.0420 C   0  0  0  0  0  0  0  0  0  0  0  0
   -4.5930    4.5850   -1.9990 O   0  0  0  0  0  0  0  0  0  0  0  0
   -6.1180    5.7740   -0.7840 O   0  0  0  0  0  0  0  0  0  0  0  0
  2  1  1  1
  2  3  1  0
  2  4  1  0
  2  5  1  0
  5  6  1  0
  6  7  2  0
  6  8  1  0
  8  9  1  0
  8 31  1  0
  9 10  2  0
  9 11  1  0
 11 12  1  0
 12 13  2  0
 12 14  1  0
 14 15  1  0
 15 16  1  0
 16 17  1  0
 17 18  1  0
 18 19  1  0
 19 20  1  0
 19 21  2  0
 21 22  1  0
 22 23  2  0
 22 24  1  0
 25 24  1  1
 25 26  1  0
 25 36  1  0
 26 27  1  0
 27 28  1  0
 28 29  1  0
 28 35  1  0
 29 30  2  0
 29 31  1  0
 31 32  1  1
 32 33  1  0
 33 34  1  0
 35 34  1  1
 35 36  1  0
 36 37  1  6
 37 38  1  0
 38 39  2  0
 38 40  1  0
 40 41  1  0
 41 42  2  0
 41 43  1  0
M  END
