
     RDKit          3D

 22 24  0  0  0  0  0  0  0  0999 V2000
    6.4490    1.5630    0.3330 C   0  0  0  0  0  0  0  0  0  0  0  0
    5.3540    0.5970    0.0580 C   0  0  0  0  0  0  0  0  0  0  0  0
    4.0050    0.7920    0.1870 C   0  0  0  0  0  0  0  0  0  0  0  0
    3.3150   -0.3560   -0.1680 C   0  0  0  0  0  0  0  0  0  0  0  0
    1.9060   -0.5450   -0.1660 N   0  0  0  0  0  0  0  0  0  0  0  0
    1.0540    0.5480    0.2430 C   0  0  0  0  0  0  0  0  0  0  0  0
   -0.3800    0.2450    0.2330 C   0  0  0  0  0  0  0  0  0  0  0  0
   -0.8650   -1.0360    0.3030 C   0  0  0  0  0  0  0  0  0  0  0  0
   -2.2350   -1.3210    0.2870 C   0  0  0  0  0  0  0  0  0  0  0  0
   -3.1040   -0.2780    0.1980 C   0  0  0  0  0  0  0  0  0  0  0  0
   -2.6410    1.0440    0.1260 C   0  0  0  0  0  0  0  0  0  0  0  0
   -1.3000    1.2970    0.1430 C   0  0  0  0  0  0  0  0  0  0  0  0
   -3.6390    2.1390    0.0530 C   0  0  0  0  0  0  0  0  0  0  0  0
   -4.6820    1.8060    1.1050 C   0  0  0  0  0  0  0  0  0  0  0  0
   -5.3940    0.5370    0.7610 C   0  0  0  0  0  0  0  0  0  0  0  0
   -4.5150   -0.4410    0.1630 N   0  0  0  0  0  0  0  0  0  0  0  0
   -5.1580   -1.8400   -0.5990 S   0  0  2  0  0  0  0  0  0  0  0  0
   -4.0990   -2.6760   -1.2130 O   0  0  0  0  0  0  0  0  0  0  0  0
   -6.1100   -1.4310   -1.7140 O   0  0  0  0  0  0  0  0  0  0  0  0
    4.2980   -1.2610   -0.5200 C   0  0  0  0  0  0  0  0  0  0  0  0
    4.1010   -2.6460   -0.9780 C   0  0  0  0  0  0  0  0  0  0  0  0
    5.4990   -0.6680   -0.3760 N   0  0  0  0  0  0  0  0  0  0  0  0
  1  2  1  0
  2  3  2  0
  2 22  1  0
  3  4  1  0
  4  5  1  0
  4 20  2  0
  5  6  1  0
  6  7  1  0
  7  8  2  0
  7 12  1  0
  8  9  1  0
  9 10  2  0
 10 11  1  0
 10 16  1  0
 11 12  2  0
 11 13  1  0
 13 14  1  0
 14 15  1  0
 15 16  1  0
 17 16  1  6
 17 18  2  0
 17 19  2  0
 20 21  1  0
 20 22  1  0
M  END
