
     RDKit          3D

  7  6  0  0  0  0  0  0  0  0999 V2000
    2.3560   -0.1490    0.7960 O   0  0  0  0  0  0  0  0  0  0  0  0
    1.2340   -0.1740    0.0670 N   0  0  0  0  0  0  0  0  0  0  0  0
   -0.1940    0.3280    0.9540 S   0  0  0  0  0  0  0  0  0  0  0  0
   -1.6770   -0.0300   -0.0200 C   0  0  1  0  0  0  0  0  0  0  0  0
   -1.3010   -0.4570   -1.2910 F   0  0  0  0  0  0  0  0  0  0  0  0
   -2.4640   -0.9860    0.6160 F   0  0  0  0  0  0  0  0  0  0  0  0
   -2.4370    1.1220   -0.2080 F   0  0  0  0  0  0  0  0  0  0  0  0
  1  2  1  0
  2  3  1  0
  3  4  1  0
  4  5  1  6
  4  6  1  0
  4  7  1  0
M  END
