
     RDKit          3D

 27 30  0  0  0  0  0  0  0  0999 V2000
    7.0160   -2.5810   -2.6400 C   0  0  0  0  0  0  0  0  0  0  0  0
    5.9840   -1.5550   -2.3700 C   0  0  0  0  0  0  0  0  0  0  0  0
    4.6480   -1.7110   -2.0930 C   0  0  0  0  0  0  0  0  0  0  0  0
    4.1200   -0.4580   -1.9190 C   0  0  0  0  0  0  0  0  0  0  0  0
    2.7190   -0.0670   -1.6010 C   0  0  0  0  0  0  0  0  0  0  0  0
    2.5950   -0.0160   -0.1150 C   0  0  0  0  0  0  0  0  0  0  0  0
    1.2250    0.3620    0.2700 N   0  0  0  0  0  0  0  0  0  0  0  0
    0.6400    1.5660   -0.0820 C   0  0  0  0  0  0  0  0  0  0  0  0
    1.3850    2.3590   -0.7800 O   0  0  0  0  0  0  0  0  0  0  0  0
   -0.7040    1.9920    0.2640 C   0  0  0  0  0  0  0  0  0  0  0  0
   -1.1540    3.2420   -0.1650 C   0  0  0  0  0  0  0  0  0  0  0  0
   -2.3670    3.7460    0.0890 N   0  0  0  0  0  0  0  0  0  0  0  0
   -2.9760    4.9130   -0.2340 C   0  0  0  0  0  0  0  0  0  0  0  0
   -4.2430    4.9380    0.2780 C   0  0  0  0  0  0  0  0  0  0  0  0
   -4.3910    3.7650    0.9170 N   0  0  0  0  0  0  0  0  0  0  0  0
   -3.2540    3.0400    0.8040 C   0  0  0  0  0  0  0  0  0  0  0  0
   -2.8660    1.8050    1.2510 C   0  0  0  0  0  0  0  0  0  0  0  0
   -1.6020    1.2380    1.0060 C   0  0  0  0  0  0  0  0  0  0  0  0
   -1.2680    0.0280    1.4670 O   0  0  0  0  0  0  0  0  0  0  0  0
   -1.7070   -1.0360    2.1440 C   0  0  0  0  0  0  0  0  0  0  0  0
   -2.7860   -1.8440    1.5050 C   0  0  0  0  0  0  0  0  0  0  0  0
   -2.6350   -3.1600    1.1940 C   0  0  0  0  0  0  0  0  0  0  0  0
   -3.8500   -3.6880    0.5820 C   0  0  0  0  0  0  0  0  0  0  0  0
   -4.7710   -2.5440    0.5550 C   0  0  0  0  0  0  0  0  0  0  0  0
   -4.1090   -1.5090    1.0980 C   0  0  0  0  0  0  0  0  0  0  0  0
    5.1270    0.4010   -2.0930 N   0  0  0  0  0  0  0  0  0  0  0  0
    6.2150   -0.2750   -2.3580 O   0  0  0  0  0  0  0  0  0  0  0  0
  1  2  1  0
  2  3  2  0
  2 27  1  0
  3  4  1  0
  4  5  1  0
  4 26  2  0
  5  6  1  0
  6  7  1  0
  7  8  1  0
  8  9  2  0
  8 10  1  0
 10 11  2  0
 10 18  1  0
 11 12  1  0
 12 13  1  0
 12 16  1  0
 13 14  2  0
 14 15  1  0
 15 16  2  0
 16 17  1  0
 17 18  2  0
 18 19  1  0
 19 20  1  0
 20 21  1  0
 21 22  2  0
 21 25  1  0
 22 23  1  0
 23 24  1  0
 24 25  2  0
 26 27  1  0
M  END
