
     RDKit          3D

  8  7  0  0  0  0  0  0  0  0999 V2000
    1.5730    1.3690    0.0750 O   0  0  0  0  0  0  0  0  0  0  0  0
    1.3160   -0.0010   -0.4740 S   0  0  2  0  0  0  0  0  0  0  0  0
    2.4360   -0.8950    0.0260 O   0  0  0  0  0  0  0  0  0  0  0  0
    1.3150    0.0150   -2.1490 F   0  0  0  0  0  0  0  0  0  0  0  0
   -0.1530   -0.6320    0.0640 N   0  0  0  0  0  0  0  0  0  0  0  0
   -1.2070    0.2610    0.2800 C   0  0  1  0  0  0  0  0  0  0  0  0
   -2.2490   -0.0400   -0.5940 F   0  0  0  0  0  0  0  0  0  0  0  0
   -1.7540    0.2160    1.5590 F   0  0  0  0  0  0  0  0  0  0  0  0
  1  2  2  0
  2  3  2  0
  2  4  1  6
  2  5  1  0
  5  6  1  0
  6  7  1  6
  6  8  1  0
M  END
