
     RDKit          3D

 27 30  0  0  0  0  0  0  0  0999 V2000
    7.7110    0.0680    1.0180 C   0  0  0  0  0  0  0  0  0  0  0  0
    6.2160    0.1380    0.7870 C   0  0  0  0  0  0  0  0  0  0  0  0
    5.6080   -1.0900    1.1240 O   0  0  0  0  0  0  0  0  0  0  0  0
    4.2260   -1.1980    0.9700 C   0  0  0  0  0  0  0  0  0  0  0  0
    3.5560   -2.3710    1.2800 C   0  0  0  0  0  0  0  0  0  0  0  0
    2.1920   -2.4770    1.1270 C   0  0  0  0  0  0  0  0  0  0  0  0
    1.5040   -1.4160    0.6680 N   0  0  0  0  0  0  0  0  0  0  0  0
    2.1000   -0.2530    0.3510 C   0  0  0  0  0  0  0  0  0  0  0  0
    1.3060    0.8980   -0.1540 C   0  0  0  0  0  0  0  0  0  0  0  0
    1.9190    1.9370   -0.4250 O   0  0  0  0  0  0  0  0  0  0  0  0
   -0.0840    0.8100   -0.3160 N   0  0  0  0  0  0  0  0  0  0  0  0
   -0.9760    1.8050   -0.7810 C   0  0  0  0  0  0  0  0  0  0  0  0
   -0.5250    3.0790   -1.1560 C   0  0  0  0  0  0  0  0  0  0  0  0
   -1.3910    4.0580   -1.6130 C   0  0  0  0  0  0  0  0  0  0  0  0
   -2.7260    3.7650   -1.6960 C   0  0  0  0  0  0  0  0  0  0  0  0
   -3.1770    2.5150   -1.3290 C   0  0  0  0  0  0  0  0  0  0  0  0
   -2.3160    1.5070   -0.8640 C   0  0  0  0  0  0  0  0  0  0  0  0
   -2.8950    0.2310   -0.5050 C   0  0  0  0  0  0  0  0  0  0  0  0
   -4.2430   -0.0410   -0.5980 N   0  0  0  0  0  0  0  0  0  0  0  0
   -4.5110   -1.2870   -0.2070 C   0  0  0  0  0  0  0  0  0  0  0  0
   -5.7830   -1.9930   -0.1410 C   0  0  0  0  0  0  0  0  0  0  0  0
   -7.0350   -1.6760   -0.4230 C   0  0  0  0  0  0  0  0  0  0  0  0
   -7.5120   -3.0180   -0.0280 C   0  0  0  0  0  0  0  0  0  0  0  0
   -6.2550   -3.3090    0.2460 C   0  0  0  0  0  0  0  0  0  0  0  0
   -3.2990   -1.7970    0.1360 N   0  0  0  0  0  0  0  0  0  0  0  0
   -2.4070   -0.8870   -0.0530 O   0  0  0  0  0  0  0  0  0  0  0  0
    3.4610   -0.1560    0.5060 C   0  0  0  0  0  0  0  0  0  0  0  0
  1  2  1  0
  2  3  1  0
  3  4  1  0
  4  5  2  0
  4 27  1  0
  5  6  1  0
  6  7  2  0
  7  8  1  0
  8  9  1  0
  8 27  2  0
  9 10  2  0
  9 11  1  0
 11 12  1  0
 12 13  2  0
 12 17  1  0
 13 14  1  0
 14 15  2  0
 15 16  1  0
 16 17  2  0
 17 18  1  0
 18 19  2  0
 18 26  1  0
 19 20  1  0
 20 21  1  0
 20 25  2  0
 21 22  2  0
 21 24  1  0
 22 23  1  0
 23 24  2  0
 25 26  1  0
M  END
