
     RDKit          3D

 40 44  0  0  0  0  0  0  0  0999 V2000
    9.3500    3.2200   -2.2310 C   0  0  0  0  0  0  0  0  0  0  0  0
    8.3360    2.5120   -1.7650 C   0  0  0  0  0  0  0  0  0  0  0  0
    7.1510    3.1390   -1.4810 N   0  0  0  0  0  0  0  0  0  0  0  0
    6.1070    2.4680   -1.0110 C   0  0  0  0  0  0  0  0  0  0  0  0
    5.0370    3.1000   -0.7660 O   0  0  0  0  0  0  0  0  0  0  0  0
    6.1280    1.1390   -0.7800 N   0  0  0  0  0  0  0  0  0  0  0  0
    4.9880    0.4700   -0.2810 C   0  0  0  0  0  0  0  0  0  0  0  0
    3.8060    0.3940   -0.9730 C   0  0  0  0  0  0  0  0  0  0  0  0
    2.7070   -0.2610   -0.4850 C   0  0  0  0  0  0  0  0  0  0  0  0
    2.7340   -0.8980    0.7690 C   0  0  0  0  0  0  0  0  0  0  0  0
    1.5500   -1.5300    1.1940 N   0  0  0  0  0  0  0  0  0  0  0  0
    1.4060   -2.4990    2.1970 C   0  0  0  0  0  0  0  0  0  0  0  0
    2.5510   -2.7940    2.7680 O   0  0  0  0  0  0  0  0  0  0  0  0
    0.2310   -3.1800    2.6530 C   0  0  0  0  0  0  0  0  0  0  0  0
   -0.9740   -3.1670    2.2820 C   0  0  0  0  0  0  0  0  0  0  0  0
   -1.6550   -2.4570    1.2280 C   0  0  0  0  0  0  0  0  0  0  0  0
   -1.4310   -2.4290   -0.1450 C   0  0  0  0  0  0  0  0  0  0  0  0
   -2.3390   -1.6260   -0.7110 N   0  0  0  0  0  0  0  0  0  0  0  0
   -3.1540   -1.1200    0.2280 C   0  0  0  0  0  0  0  0  0  0  0  0
   -4.2890   -0.1850   -0.0270 C   0  0  1  0  0  0  0  0  0  0  0  0
   -3.8240    1.0780   -0.6900 C   0  0  0  0  0  0  0  0  0  0  0  0
   -4.9300    2.0310   -0.9950 C   0  0  0  0  0  0  0  0  0  0  0  0
   -6.1450    1.2910   -1.1470 N   0  0  0  0  0  0  0  0  0  0  0  0
   -7.3720    1.8320   -0.7080 C   0  0  0  0  0  0  0  0  0  0  0  0
   -7.8400    1.6920    0.5450 C   0  0  0  0  0  0  0  0  0  0  0  0
   -9.1410    2.3760    0.6620 C   0  0  0  0  0  0  0  0  0  0  0  0
   -9.3420    2.9170   -0.6920 C   0  0  0  0  0  0  0  0  0  0  0  0
   -8.3360    2.5910   -1.4190 N   0  0  0  0  0  0  0  0  0  0  0  0
   -6.0970   -0.0040   -1.7520 C   0  0  0  0  0  0  0  0  0  0  0  0
   -5.3280   -0.9230   -0.8300 C   0  0  0  0  0  0  0  0  0  0  0  0
   -2.7380   -1.6220    1.3900 N   0  0  0  0  0  0  0  0  0  0  0  0
    0.5250   -4.1250    3.8560 C   0  0  0  0  0  0  0  0  0  0  0  0
    1.4540   -5.0690    3.4580 O   0  0  0  0  0  0  0  0  0  0  0  0
    3.8940   -0.8230    1.4490 C   0  0  0  0  0  0  0  0  0  0  0  0
    5.0240   -0.1480    0.9450 C   0  0  0  0  0  0  0  0  0  0  0  0
    6.4830   -0.1180    1.9280 Cl  0  0  0  0  0  0  0  0  0  0  0  0
    7.2780    0.5090   -1.0520 C   0  0  0  0  0  0  0  0  0  0  0  0
    7.3640   -0.7280   -0.8590 O   0  0  0  0  0  0  0  0  0  0  0  0
    8.4120    1.1720   -1.5500 C   0  0  0  0  0  0  0  0  0  0  0  0
    9.5040    0.4790   -1.7920 C   0  0  0  0  0  0  0  0  0  0  0  0
  1  2  2  0
  2  3  1  0
  2 39  1  0
  3  4  1  0
  4  5  2  0
  4  6  1  0
  6  7  1  0
  6 37  1  0
  7  8  2  0
  7 35  1  0
  8  9  1  0
  9 10  2  0
 10 11  1  0
 10 34  1  0
 11 12  1  0
 12 13  2  0
 12 14  1  0
 14 15  2  3
 14 32  1  0
 15 16  1  0
 16 17  2  0
 16 31  1  0
 17 18  1  0
 18 19  1  0
 20 19  1  6
 19 31  2  0
 20 21  1  0
 20 30  1  0
 21 22  1  0
 22 23  1  0
 23 24  1  0
 23 29  1  0
 24 25  2  0
 24 28  1  0
 25 26  1  0
 26 27  1  0
 27 28  2  0
 29 30  1  0
 32 33  1  0
 34 35  2  0
 35 36  1  0
 37 38  2  0
 37 39  1  0
 39 40  2  0
M  END
