
     RDKit          3D

 40 44  0  0  0  0  0  0  0  0999 V2000
   -3.6900   -3.0630   -3.7740 C   0  0  0  0  0  0  0  0  0  0  0  0
   -2.4590   -2.1860   -3.5240 C   0  0  0  0  0  0  0  0  0  0  0  0
   -2.5820   -1.5530   -2.1990 N   0  0  0  0  0  0  0  0  0  0  0  0
   -2.6830   -2.3120   -1.0240 C   0  0  0  0  0  0  0  0  0  0  0  0
   -2.6650   -3.5820   -1.1970 O   0  0  0  0  0  0  0  0  0  0  0  0
   -2.8110   -1.8410    0.3310 C   0  0  0  0  0  0  0  0  0  0  0  0
   -3.3840   -2.7200    1.2930 C   0  0  0  0  0  0  0  0  0  0  0  0
   -3.8960   -4.2880    0.7000 Cl  0  0  0  0  0  0  0  0  0  0  0  0
   -3.5250   -2.3670    2.5700 N   0  0  0  0  0  0  0  0  0  0  0  0
   -3.1410   -1.1690    3.0360 C   0  0  0  0  0  0  0  0  0  0  0  0
   -3.3280   -0.8320    4.4750 C   0  0  0  0  0  0  0  0  0  0  0  0
   -2.6030   -0.3350    2.1570 N   0  0  0  0  0  0  0  0  0  0  0  0
   -2.4260   -0.6400    0.8120 C   0  0  0  0  0  0  0  0  0  0  0  0
   -1.7700    0.3640    0.0400 N   0  0  0  0  0  0  0  0  0  0  0  0
   -0.4610    0.2410   -0.5420 C   0  0  0  0  0  0  0  0  0  0  0  0
    0.5000   -0.0020    0.6130 C   0  0  0  0  0  0  0  0  0  0  0  0
    1.9100   -0.1480    0.1320 C   0  0  0  0  0  0  0  0  0  0  0  0
    2.0640   -0.0230   -1.0990 O   0  0  0  0  0  0  0  0  0  0  0  0
    2.9830   -0.4020    0.9730 N   0  0  0  0  0  0  0  0  0  0  0  0
    4.3360   -0.5460    0.5780 C   0  0  0  0  0  0  0  0  0  0  0  0
    4.8280   -0.3420   -0.6780 C   0  0  0  0  0  0  0  0  0  0  0  0
    6.1800   -0.5110   -1.0060 C   0  0  0  0  0  0  0  0  0  0  0  0
    7.0940   -0.8980   -0.0560 C   0  0  0  0  0  0  0  0  0  0  0  0
    8.4290   -1.0620   -0.3880 C   0  0  0  0  0  0  0  0  0  0  0  0
    8.8540   -0.8670   -1.5550 O   0  0  0  0  0  0  0  0  0  0  0  0
    9.2540   -1.4410    0.6020 N   0  0  0  0  0  0  0  0  0  0  0  0
    8.8150   -1.6530    1.8550 C   0  0  0  0  0  0  0  0  0  0  0  0
    9.6350   -2.0090    2.7470 O   0  0  0  0  0  0  0  0  0  0  0  0
    7.5140   -1.4900    2.1600 N   0  0  0  0  0  0  0  0  0  0  0  0
    6.6070   -1.1060    1.2150 C   0  0  0  0  0  0  0  0  0  0  0  0
    5.2860   -0.9420    1.5380 C   0  0  0  0  0  0  0  0  0  0  0  0
   -2.4730    1.6150   -0.0420 C   0  0  0  0  0  0  0  0  0  0  0  0
   -2.5100    2.3520    1.1560 C   0  0  0  0  0  0  0  0  0  0  0  0
   -3.1290    3.5730    1.2460 C   0  0  0  0  0  0  0  0  0  0  0  0
   -3.7370    4.0910    0.1060 C   0  0  0  0  0  0  0  0  0  0  0  0
   -3.7190    3.3990   -1.0750 C   0  0  0  0  0  0  0  0  0  0  0  0
   -3.0730    2.1510   -1.1210 C   0  0  0  0  0  0  0  0  0  0  0  0
   -4.3590    4.0890   -2.0140 C   0  0  0  0  0  0  0  0  0  0  0  0
   -4.8520    5.3530   -1.4190 C   0  0  0  0  0  0  0  0  0  0  0  0
   -4.3880    5.2550   -0.0160 C   0  0  0  0  0  0  0  0  0  0  0  0
  1  2  1  0
  2  3  1  0
  3  4  1  0
  4  5  2  0
  4  6  1  0
  6  7  2  0
  6 13  1  0
  7  8  1  0
  7  9  1  0
  9 10  2  0
 10 11  1  0
 10 12  1  0
 12 13  2  0
 13 14  1  0
 14 15  1  0
 14 32  1  0
 15 16  1  0
 16 17  1  0
 17 18  2  0
 17 19  1  0
 19 20  1  0
 20 21  2  0
 20 31  1  0
 21 22  1  0
 22 23  2  0
 23 24  1  0
 23 30  1  0
 24 25  2  0
 24 26  1  0
 26 27  1  0
 27 28  2  0
 27 29  1  0
 29 30  1  0
 30 31  2  0
 32 33  1  0
 32 37  2  0
 33 34  2  0
 34 35  1  0
 35 36  1  0
 35 40  2  0
 36 37  1  0
 36 38  2  0
 38 39  1  0
 39 40  1  0
M  END
