
     RDKit          3D

 40 44  0  0  0  0  0  0  0  0999 V2000
    8.6060    3.7330    0.7940 C   0  0  0  0  0  0  0  0  0  0  0  0
    8.8330    2.4310    0.7580 C   0  0  0  0  0  0  0  0  0  0  0  0
    7.9810    1.5300    0.0640 N   0  0  0  0  0  0  0  0  0  0  0  0
    8.0710    0.1160    0.3630 C   0  0  0  0  0  0  0  0  0  0  0  0
    7.0600    2.0480   -0.9090 C   0  0  0  0  0  0  0  0  0  0  0  0
    6.2650    0.9730   -1.5250 C   0  0  0  0  0  0  0  0  0  0  0  0
    5.0620    0.5340   -1.0260 C   0  0  0  0  0  0  0  0  0  0  0  0
    4.3260   -0.4710   -1.6070 C   0  0  0  0  0  0  0  0  0  0  0  0
    3.0510   -0.9280   -1.0690 C   0  0  0  0  0  0  0  0  0  0  0  0
    2.2610   -1.8930   -1.5550 N   0  0  0  0  0  0  0  0  0  0  0  0
    1.1700   -2.0260   -0.7830 C   0  0  0  0  0  0  0  0  0  0  0  0
    0.0460   -2.8200   -0.7770 C   0  0  0  0  0  0  0  0  0  0  0  0
   -0.9380   -2.6980    0.2080 C   0  0  0  0  0  0  0  0  0  0  0  0
   -0.8110   -1.7660    1.2180 C   0  0  0  0  0  0  0  0  0  0  0  0
   -1.7890   -1.5750    2.2820 C   0  0  0  0  0  0  0  0  0  0  0  0
   -1.5380   -0.6810    3.1420 O   0  0  0  0  0  0  0  0  0  0  0  0
   -2.9890   -2.3180    2.4140 N   0  0  0  0  0  0  0  0  0  0  0  0
   -3.9410   -2.1270    3.4550 C   0  0  0  0  0  0  0  0  0  0  0  0
   -4.6020   -0.8040    3.5530 C   0  0  0  0  0  0  0  0  0  0  0  0
   -5.3910   -0.4170    2.4010 N   0  0  0  0  0  0  0  0  0  0  0  0
   -6.7020   -0.8030    2.3130 C   0  0  0  0  0  0  0  0  0  0  0  0
   -7.1490   -1.5040    3.2600 O   0  0  0  0  0  0  0  0  0  0  0  0
   -7.4910   -0.4660    1.2850 N   0  0  0  0  0  0  0  0  0  0  0  0
   -7.0680    0.2780    0.2510 C   0  0  0  0  0  0  0  0  0  0  0  0
   -7.8720    0.6310   -0.8150 C   0  0  0  0  0  0  0  0  0  0  0  0
   -7.4070    1.3980   -1.8650 C   0  0  0  0  0  0  0  0  0  0  0  0
   -8.2820    1.7750   -3.0100 C   0  0  0  0  0  0  0  0  0  0  0  0
   -6.0910    1.8090   -1.8150 C   0  0  0  0  0  0  0  0  0  0  0  0
   -5.2830    1.4530   -0.7430 C   0  0  0  0  0  0  0  0  0  0  0  0
   -5.7540    0.6870    0.3010 C   0  0  0  0  0  0  0  0  0  0  0  0
   -4.9390    0.3290    1.3820 C   0  0  0  0  0  0  0  0  0  0  0  0
   -3.7500    0.7310    1.3780 O   0  0  0  0  0  0  0  0  0  0  0  0
    0.3320   -0.9920    1.1730 C   0  0  0  0  0  0  0  0  0  0  0  0
    1.3040   -1.0920    0.2240 C   0  0  0  0  0  0  0  0  0  0  0  0
    2.4750   -0.4200    0.0320 N   0  0  0  0  0  0  0  0  0  0  0  0
    4.8140   -1.0650   -2.7390 C   0  0  0  0  0  0  0  0  0  0  0  0
    3.9330   -2.3550   -3.5400 Cl  0  0  0  0  0  0  0  0  0  0  0  0
    6.0220   -0.6230   -3.2380 C   0  0  0  0  0  0  0  0  0  0  0  0
    6.4420   -1.1980   -4.2880 O   0  0  0  0  0  0  0  0  0  0  0  0
    6.7230    0.3710   -2.6390 N   0  0  0  0  0  0  0  0  0  0  0  0
  1  2  2  0
  2  3  1  0
  3  4  1  0
  3  5  1  0
  5  6  1  0
  6  7  2  0
  6 40  1  0
  7  8  1  0
  8  9  1  0
  8 36  2  0
  9 10  2  0
  9 35  1  0
 10 11  1  0
 11 12  2  0
 11 34  1  0
 12 13  1  0
 13 14  2  0
 14 15  1  0
 14 33  1  0
 15 16  2  0
 15 17  1  0
 17 18  1  0
 18 19  1  0
 19 20  1  0
 20 21  1  0
 20 31  1  0
 21 22  2  0
 21 23  1  0
 23 24  1  0
 24 25  2  0
 24 30  1  0
 25 26  1  0
 26 27  1  0
 26 28  2  0
 28 29  1  0
 29 30  2  0
 30 31  1  0
 31 32  2  0
 33 34  2  0
 34 35  1  0
 36 37  1  0
 36 38  1  0
 38 39  2  0
 38 40  1  0
M  END
