
     RDKit          3D

 40 44  0  0  0  0  0  0  0  0999 V2000
   -3.9560   -0.3870    2.6310 C   0  0  0  0  0  0  0  0  0  0  0  0
   -3.0230   -0.3070    1.4710 C   0  0  0  0  0  0  0  0  0  0  0  0
   -1.6690   -0.4010    1.5180 N   0  0  0  0  0  0  0  0  0  0  0  0
   -1.1760   -0.2750    0.2720 C   0  0  0  0  0  0  0  0  0  0  0  0
    0.2080   -0.3280   -0.0860 N   0  0  0  0  0  0  0  0  0  0  0  0
    1.2460   -0.5290    0.8320 C   0  0  0  0  0  0  0  0  0  0  0  0
    0.9540   -0.6800    2.0490 O   0  0  0  0  0  0  0  0  0  0  0  0
    2.6690   -0.5770    0.4530 C   0  0  0  0  0  0  0  0  0  0  0  0
    3.5950   -1.1220    1.3150 C   0  0  0  0  0  0  0  0  0  0  0  0
    4.9360   -1.1840    1.0110 C   0  0  0  0  0  0  0  0  0  0  0  0
    5.3480   -0.6770   -0.2040 C   0  0  0  0  0  0  0  0  0  0  0  0
    6.7320   -0.7510   -0.5060 N   0  0  0  0  0  0  0  0  0  0  0  0
    7.2380   -1.5280   -1.4800 C   0  0  0  0  0  0  0  0  0  0  0  0
    6.4370   -2.2170   -2.1580 O   0  0  0  0  0  0  0  0  0  0  0  0
    8.5940   -1.5820   -1.7450 C   0  0  0  0  0  0  0  0  0  0  0  0
    9.1100   -2.2880   -2.6390 O   0  0  0  0  0  0  0  0  0  0  0  0
    9.3760   -0.8400   -1.0040 O   0  0  0  0  0  0  0  0  0  0  0  0
    8.9490   -0.0610   -0.0390 C   0  0  0  0  0  0  0  0  0  0  0  0
    9.8360    0.6800    0.6860 C   0  0  0  0  0  0  0  0  0  0  0  0
    9.4080    1.5050    1.7050 C   0  0  0  0  0  0  0  0  0  0  0  0
    8.0720    1.5440    1.9470 C   0  0  0  0  0  0  0  0  0  0  0  0
    7.1340    0.8130    1.2410 C   0  0  0  0  0  0  0  0  0  0  0  0
    7.5890   -0.0100    0.2220 C   0  0  0  0  0  0  0  0  0  0  0  0
    4.4440   -0.1150   -1.1090 C   0  0  0  0  0  0  0  0  0  0  0  0
    3.1180   -0.0820   -0.7480 C   0  0  0  0  0  0  0  0  0  0  0  0
   -2.2390   -0.1070   -0.5160 N   0  0  0  0  0  0  0  0  0  0  0  0
   -3.3480   -0.1240    0.1850 N   0  0  0  0  0  0  0  0  0  0  0  0
   -4.7350    0.0160   -0.2850 C   0  0  1  0  0  0  0  0  0  0  0  0
   -4.8000    0.6590   -1.5300 N   0  0  0  0  0  0  0  0  0  0  0  0
   -4.3670    1.9570   -1.7460 C   0  0  0  0  0  0  0  0  0  0  0  0
   -5.1420    3.1350   -1.2750 C   0  0  0  0  0  0  0  0  0  0  0  0
   -5.4070    3.1850    0.1900 C   0  0  0  0  0  0  0  0  0  0  0  0
   -6.1010    4.4840    0.4530 N   0  0  0  0  0  0  0  0  0  0  0  0
   -5.3280   -1.3670   -0.4470 C   0  0  0  0  0  0  0  0  0  0  0  0
   -4.7320   -2.2390   -1.3210 C   0  0  0  0  0  0  0  0  0  0  0  0
   -5.2420   -3.5310   -1.5110 C   0  0  0  0  0  0  0  0  0  0  0  0
   -6.3490   -3.9390   -0.8190 C   0  0  0  0  0  0  0  0  0  0  0  0
   -6.9490   -3.0700    0.0580 C   0  0  0  0  0  0  0  0  0  0  0  0
   -6.4330   -1.7870    0.2370 C   0  0  0  0  0  0  0  0  0  0  0  0
   -7.1990   -0.6650    1.3580 Cl  0  0  0  0  0  0  0  0  0  0  0  0
  1  2  1  0
  2  3  2  0
  2 27  1  0
  3  4  1  0
  4  5  1  0
  4 26  2  0
  5  6  1  0
  6  7  2  0
  6  8  1  0
  8  9  2  0
  8 25  1  0
  9 10  1  0
 10 11  2  0
 11 12  1  0
 11 24  1  0
 12 13  1  0
 12 23  1  0
 13 14  2  0
 13 15  1  0
 15 16  2  0
 15 17  1  0
 17 18  1  0
 18 19  2  0
 18 23  1  0
 19 20  1  0
 20 21  2  0
 21 22  1  0
 22 23  2  0
 24 25  2  0
 26 27  1  0
 27 28  1  0
 28 29  1  6
 28 34  1  0
 29 30  1  0
 30 31  1  0
 31 32  1  0
 32 33  1  0
 34 35  2  0
 34 39  1  0
 35 36  1  0
 36 37  2  0
 37 38  1  0
 38 39  2  0
 39 40  1  0
M  END
