
     RDKit          3D

 44 48  0  0  0  0  0  0  0  0999 V2000
   -0.4090   -3.1990   -1.4640 C   0  0  0  0  0  0  0  0  0  0  0  0
   -1.7100   -3.1280   -0.8300 N   0  0  0  0  0  0  0  0  0  0  0  0
   -2.2810   -4.2390   -0.0610 C   0  0  0  0  0  0  0  0  0  0  0  0
   -3.3590   -3.5530    0.6890 C   0  0  0  0  0  0  0  0  0  0  0  0
   -3.8980   -4.0850    1.7010 O   0  0  0  0  0  0  0  0  0  0  0  0
   -3.6740   -2.3010    0.1430 N   0  0  0  0  0  0  0  0  0  0  0  0
   -4.7610   -1.4210    0.4210 C   0  0  0  0  0  0  0  0  0  0  0  0
   -5.1190   -1.0840    1.7070 C   0  0  0  0  0  0  0  0  0  0  0  0
   -6.1800   -0.2210    1.9730 C   0  0  0  0  0  0  0  0  0  0  0  0
   -6.9290    0.3420    0.9610 C   0  0  0  0  0  0  0  0  0  0  0  0
   -8.0600    1.2740    1.1990 C   0  0  1  0  0  0  0  0  0  0  0  0
   -7.8970    1.9470    2.5280 C   0  0  0  0  0  0  0  0  0  0  0  0
   -8.1010    2.3610    0.1320 C   0  0  0  0  0  0  0  0  0  0  0  0
   -9.4080    0.5860    1.2070 C   0  0  0  0  0  0  0  0  0  0  0  0
   -6.5530   -0.0120   -0.3360 C   0  0  0  0  0  0  0  0  0  0  0  0
   -5.4980   -0.8700   -0.5980 C   0  0  0  0  0  0  0  0  0  0  0  0
   -2.6170   -2.0330   -0.8320 C   0  0  0  0  0  0  0  0  0  0  0  0
   -2.6150   -1.0030   -1.5350 N   0  0  0  0  0  0  0  0  0  0  0  0
   -1.8420   -0.4780   -2.5330 C   0  0  0  0  0  0  0  0  0  0  0  0
   -0.7020    0.1650   -2.5060 C   0  0  0  0  0  0  0  0  0  0  0  0
    0.0610    0.4970   -1.3170 C   0  0  0  0  0  0  0  0  0  0  0  0
   -0.3720    0.1620   -0.1880 O   0  0  0  0  0  0  0  0  0  0  0  0
    1.2790    1.1890   -1.4070 N   0  0  0  0  0  0  0  0  0  0  0  0
    1.9040    1.5980   -2.6610 C   0  0  0  0  0  0  0  0  0  0  0  0
    3.4100    1.2910   -2.3600 C   0  0  2  0  0  0  0  0  0  0  0  0
    3.5540   -0.1460   -2.5110 C   0  0  0  0  0  0  0  0  0  0  0  0
    3.0370   -1.1000   -1.6090 N   0  0  0  0  0  0  0  0  0  0  0  0
    4.1850   -0.6090   -3.5230 O   0  0  0  0  0  0  0  0  0  0  0  0
    3.4860    1.8890   -1.0050 C   0  0  2  0  0  0  0  0  0  0  0  0
    4.6570    1.6170   -0.1700 C   0  0  0  0  0  0  0  0  0  0  0  0
    5.6290    0.7080   -0.4990 C   0  0  0  0  0  0  0  0  0  0  0  0
    6.7160    0.5260    0.3620 C   0  0  0  0  0  0  0  0  0  0  0  0
    6.8000    1.2610    1.5280 C   0  0  0  0  0  0  0  0  0  0  0  0
    5.8170    2.1730    1.8490 C   0  0  0  0  0  0  0  0  0  0  0  0
    4.7510    2.3610    1.0200 C   0  0  0  0  0  0  0  0  0  0  0  0
    3.5360    3.5490    1.4680 Cl  0  0  0  0  0  0  0  0  0  0  0  0
    7.7980    1.2880    2.5770 C   0  0  0  0  0  0  0  0  0  0  0  0
    8.9450    0.6530    2.8050 C   0  0  0  0  0  0  0  0  0  0  0  0
    9.7780   -0.3680    2.1510 C   0  0  0  0  0  0  0  0  0  0  0  0
    9.6550   -1.1090    1.0630 C   0  0  0  0  0  0  0  0  0  0  0  0
    8.6710   -1.2470    0.0550 N   0  0  0  0  0  0  0  0  0  0  0  0
    7.5010   -0.4990   -0.3280 C   0  0  0  0  0  0  0  0  0  0  0  0
    7.0750   -0.7770   -1.4610 O   0  0  0  0  0  0  0  0  0  0  0  0
    2.1550    1.6620   -0.3480 C   0  0  0  0  0  0  0  0  0  0  0  0
  1  2  1  0
  2  3  1  0
  2 17  1  0
  3  4  1  0
  4  5  2  0
  4  6  1  0
  6  7  1  0
  6 17  1  0
  7  8  2  0
  7 16  1  0
  8  9  1  0
  9 10  2  0
 10 11  1  0
 10 15  1  0
 11 12  1  1
 11 13  1  0
 11 14  1  0
 15 16  2  0
 17 18  2  3
 18 19  1  0
 19 20  2  3
 20 21  1  0
 21 22  2  0
 21 23  1  0
 23 24  1  0
 23 44  1  0
 24 25  1  0
 25 26  1  1
 25 29  1  0
 26 27  1  0
 26 28  2  0
 29 30  1  1
 29 44  1  0
 30 31  2  0
 30 35  1  0
 31 32  1  0
 32 33  2  0
 32 42  1  0
 33 34  1  0
 33 37  1  0
 34 35  2  0
 35 36  1  0
 37 38  2  0
 38 39  1  0
 39 40  2  0
 40 41  1  0
 41 42  1  0
 42 43  2  0
M  END
