
     RDKit          3D

 44 47  0  0  0  0  0  0  0  0999 V2000
    6.3810   -3.5180   -0.7050 C   0  0  0  0  0  0  0  0  0  0  0  0
    6.3970   -2.1440   -0.8420 O   0  0  0  0  0  0  0  0  0  0  0  0
    5.1210   -1.6210   -0.8860 C   0  0  0  0  0  0  0  0  0  0  0  0
    4.2960   -1.8890    0.3290 C   0  0  0  0  0  0  0  0  0  0  0  0
    2.9520   -1.3170    0.2510 N   0  0  0  0  0  0  0  0  0  0  0  0
    1.9010   -2.0940   -0.3110 C   0  0  0  0  0  0  0  0  0  0  0  0
    1.9760   -3.3540   -0.1060 O   0  0  0  0  0  0  0  0  0  0  0  0
    0.7530   -1.6130   -1.0910 C   0  0  0  0  0  0  0  0  0  0  0  0
    0.1920   -2.8040   -1.8810 C   0  0  0  0  0  0  0  0  0  0  0  0
   -1.2690   -2.8760   -1.8130 C   0  0  0  0  0  0  0  0  0  0  0  0
   -1.9680   -1.9850   -2.4060 O   0  0  0  0  0  0  0  0  0  0  0  0
   -1.9850   -3.8720   -1.1280 N   0  0  0  0  0  0  0  0  0  0  0  0
   -1.5790   -4.4270    0.1560 C   0  0  0  0  0  0  0  0  0  0  0  0
   -1.9740   -3.4730    1.2610 C   0  0  0  0  0  0  0  0  0  0  0  0
   -3.3740   -2.9700    1.1110 C   0  0  0  0  0  0  0  0  0  0  0  0
   -3.3800   -1.4620    1.4860 C   0  0  0  0  0  0  0  0  0  0  0  0
   -4.4630   -0.8080    0.7330 C   0  0  0  0  0  0  0  0  0  0  0  0
   -4.6860    0.4920    0.5600 C   0  0  0  0  0  0  0  0  0  0  0  0
   -5.8650    0.9050   -0.2540 C   0  0  0  0  0  0  0  0  0  0  0  0
   -6.6660    0.0620   -0.7730 N   0  0  0  0  0  0  0  0  0  0  0  0
   -6.1340    2.3320   -0.4740 C   0  0  0  0  0  0  0  0  0  0  0  0
   -5.3240    3.2160    0.0560 C   0  0  0  0  0  0  0  0  0  0  0  0
   -4.1740    2.8500    0.8490 C   0  0  0  0  0  0  0  0  0  0  0  0
   -3.8710    1.5690    1.0890 C   0  0  0  0  0  0  0  0  0  0  0  0
   -2.6550    1.4020    1.9330 C   0  0  0  0  0  0  0  0  0  0  0  0
   -2.2800    2.7140    2.6030 C   0  0  0  0  0  0  0  0  0  0  0  0
   -3.2220    3.1250    3.7050 C   0  0  0  0  0  0  0  0  0  0  0  0
   -1.2160    3.4150    2.2510 C   0  0  0  0  0  0  0  0  0  0  0  0
   -0.2500    3.0790    1.2100 C   0  0  0  0  0  0  0  0  0  0  0  0
    0.5890    2.0250    1.2120 C   0  0  0  0  0  0  0  0  0  0  0  0
    1.4730    1.8910    0.0500 N   0  0  0  0  0  0  0  0  0  0  0  0
    2.3420    1.0310   -0.1830 C   0  0  0  0  0  0  0  0  0  0  0  0
    2.9450    1.0620   -1.4940 N   0  0  0  0  0  0  0  0  0  0  0  0
    3.2910    2.2140   -2.1850 C   0  0  0  0  0  0  0  0  0  0  0  0
    3.1430    3.4570   -1.6310 C   0  0  0  0  0  0  0  0  0  0  0  0
    3.4740    4.6240   -2.3010 C   0  0  0  0  0  0  0  0  0  0  0  0
    3.9690    4.5710   -3.5620 C   0  0  0  0  0  0  0  0  0  0  0  0
    4.1360    3.3370   -4.1610 C   0  0  0  0  0  0  0  0  0  0  0  0
    4.7720    3.2390   -5.7730 Cl  0  0  0  0  0  0  0  0  0  0  0  0
    3.8050    2.1780   -3.4890 C   0  0  0  0  0  0  0  0  0  0  0  0
    2.7930    0.0150    0.7960 C   0  0  1  0  0  0  0  0  0  0  0  0
    1.7900    0.0120    1.8930 C   0  0  0  0  0  0  0  0  0  0  0  0
    1.8420   -1.0160    2.6880 O   0  0  0  0  0  0  0  0  0  0  0  0
    0.7970    1.0140    2.1520 N   0  0  0  0  0  0  0  0  0  0  0  0
  1  2  1  0
  2  3  1  0
  3  4  1  0
  4  5  1  0
  5  6  1  0
 41  5  1  6
  6  7  2  0
  6  8  1  0
  8  9  1  0
  9 10  1  0
 10 11  2  0
 10 12  1  0
 12 13  1  0
 13 14  1  0
 14 15  1  0
 15 16  1  0
 16 17  1  0
 17 18  2  0
 18 19  1  0
 18 24  1  0
 19 20  2  0
 19 21  1  0
 21 22  2  0
 22 23  1  0
 23 24  2  0
 24 25  1  0
 25 26  1  0
 26 27  1  0
 26 28  2  0
 28 29  1  0
 29 30  2  0
 30 31  1  0
 30 44  1  0
 31 32  2  0
 32 33  1  0
 32 41  1  0
 33 34  1  0
 34 35  2  0
 34 40  1  0
 35 36  1  0
 36 37  2  0
 37 38  1  0
 38 39  1  0
 38 40  2  0
 41 42  1  0
 42 43  2  0
 42 44  1  0
M  END
