
     RDKit          3D

 43 46  0  0  0  0  0  0  0  0999 V2000
    0.8610   -5.3900   -0.0070 C   0  0  0  0  0  0  0  0  0  0  0  0
    0.1820   -4.2080    0.5300 C   0  0  0  0  0  0  0  0  0  0  0  0
    0.2470   -2.9510   -0.3610 C   0  0  0  0  0  0  0  0  0  0  0  0
    1.0620   -3.1190   -1.3040 N   0  0  0  0  0  0  0  0  0  0  0  0
    1.6230   -2.5440   -2.3950 N   0  0  0  0  0  0  0  0  0  0  0  0
    2.6010   -3.2580   -3.2120 C   0  0  0  0  0  0  0  0  0  0  0  0
    2.3320   -3.2300   -4.4620 O   0  0  0  0  0  0  0  0  0  0  0  0
    3.7420   -3.9280   -2.7590 N   0  0  0  0  0  0  0  0  0  0  0  0
    4.6250   -3.5740   -1.6690 C   0  0  0  0  0  0  0  0  0  0  0  0
    4.3600   -2.3000   -0.8980 C   0  0  0  0  0  0  0  0  0  0  0  0
    4.4750   -2.3040    0.4660 C   0  0  0  0  0  0  0  0  0  0  0  0
    4.2230   -1.1170    1.2240 C   0  0  0  0  0  0  0  0  0  0  0  0
    3.8660    0.0520    0.6220 C   0  0  0  0  0  0  0  0  0  0  0  0
    3.7540    0.0550   -0.7280 C   0  0  0  0  0  0  0  0  0  0  0  0
    4.0010   -1.1150   -1.4910 C   0  0  0  0  0  0  0  0  0  0  0  0
    3.6230    1.2110    1.4020 O   0  0  0  0  0  0  0  0  0  0  0  0
    4.5120    2.2140    1.7560 C   0  0  0  0  0  0  0  0  0  0  0  0
    3.8490    3.5250    1.2920 C   0  0  0  0  0  0  0  0  0  0  0  0
    3.7170    3.5680   -0.1680 C   0  0  0  0  0  0  0  0  0  0  0  0
    2.6280    3.8650   -0.8340 C   0  0  0  0  0  0  0  0  0  0  0  0
    1.3090    4.2180   -0.2460 C   0  0  1  0  0  0  0  0  0  0  0  0
    0.7050    5.4090   -1.0060 C   0  0  0  0  0  0  0  0  0  0  0  0
    0.3160    3.0760   -0.2830 C   0  0  0  0  0  0  0  0  0  0  0  0
   -0.1980    2.8410    1.0690 N   0  0  0  0  0  0  0  0  0  0  0  0
   -1.0430    1.7430    1.3710 C   0  0  0  0  0  0  0  0  0  0  0  0
   -1.8300    2.0760    2.3830 O   0  0  0  0  0  0  0  0  0  0  0  0
   -1.1600    0.3980    0.7690 C   0  0  0  0  0  0  0  0  0  0  0  0
   -0.1710   -0.5020    0.4290 C   0  0  0  0  0  0  0  0  0  0  0  0
   -0.5890   -1.7630   -0.0010 C   0  0  0  0  0  0  0  0  0  0  0  0
   -1.9490   -2.0780   -0.0840 C   0  0  0  0  0  0  0  0  0  0  0  0
   -2.9550   -1.1980    0.2490 C   0  0  0  0  0  0  0  0  0  0  0  0
   -2.5200    0.0470    0.6740 C   0  0  0  0  0  0  0  0  0  0  0  0
   -3.6180    1.0130    0.9030 C   0  0  0  0  0  0  0  0  0  0  0  0
   -4.6740    0.7020    1.5150 O   0  0  0  0  0  0  0  0  0  0  0  0
   -3.4490    2.3220    0.3950 N   0  0  0  0  0  0  0  0  0  0  0  0
   -4.4870    3.3280    0.5860 C   0  0  2  0  0  0  0  0  0  0  0  0
   -4.9650    3.8100   -0.7500 C   0  0  0  0  0  0  0  0  0  0  0  0
   -4.0240    4.4430    1.4960 C   0  0  0  0  0  0  0  0  0  0  0  0
   -4.4000   -1.5000    0.2240 C   0  0  0  0  0  0  0  0  0  0  0  0
   -4.7070   -2.8100   -0.4000 C   0  0  0  0  0  0  0  0  0  0  0  0
   -3.6730   -3.7680   -0.0150 N   0  0  0  0  0  0  0  0  0  0  0  0
   -3.5840   -3.8700    1.4240 C   0  0  0  0  0  0  0  0  0  0  0  0
   -2.4590   -3.3760   -0.6560 C   0  0  0  0  0  0  0  0  0  0  0  0
  1  2  1  0
  2  3  1  0
  3  4  2  0
  3 29  1  0
  4  5  1  0
  5  6  1  0
  6  7  2  0
  6  8  1  0
  8  9  1  0
  9 10  1  0
 10 11  2  0
 10 15  1  0
 11 12  1  0
 12 13  2  0
 13 14  1  0
 13 16  1  0
 14 15  2  0
 16 17  1  0
 17 18  1  0
 18 19  1  0
 19 20  2  0
 20 21  1  0
 21 22  1  6
 21 23  1  0
 23 24  1  0
 24 25  1  0
 25 26  2  0
 25 27  1  0
 27 28  1  0
 27 32  2  0
 28 29  2  0
 29 30  1  0
 30 31  2  0
 30 43  1  0
 31 32  1  0
 31 39  1  0
 32 33  1  0
 33 34  2  0
 33 35  1  0
 35 36  1  0
 36 37  1  6
 36 38  1  0
 39 40  1  0
 40 41  1  0
 41 42  1  0
 41 43  1  0
M  END
