
     RDKit          3D

 44 49  0  0  0  0  0  0  0  0999 V2000
    4.7490    0.5120    4.5490 C   0  0  0  0  0  0  0  0  0  0  0  0
    4.2870   -0.6350    3.7290 C   0  0  0  0  0  0  0  0  0  0  0  0
    4.4970   -1.9240    4.1670 C   0  0  0  0  0  0  0  0  0  0  0  0
    4.0870   -3.0130    3.4370 C   0  0  0  0  0  0  0  0  0  0  0  0
    3.4490   -2.8090    2.2350 C   0  0  0  0  0  0  0  0  0  0  0  0
    3.2310   -1.5060    1.7800 C   0  0  0  0  0  0  0  0  0  0  0  0
    2.5770   -1.3080    0.5500 C   0  0  0  0  0  0  0  0  0  0  0  0
    2.3580   -0.0170    0.0960 C   0  0  0  0  0  0  0  0  0  0  0  0
    1.7010    0.2370   -1.2140 C   0  0  0  0  0  0  0  0  0  0  0  0
    1.4470   -0.8410   -1.9740 C   0  0  0  0  0  0  0  0  0  0  0  0
    0.8280   -0.9870   -3.2680 C   0  0  0  0  0  0  0  0  0  0  0  0
   -0.2560   -1.5720   -3.7480 C   0  0  0  0  0  0  0  0  0  0  0  0
   -0.4040   -1.3060   -5.5540 Cl  0  0  0  0  0  0  0  0  0  0  0  0
   -1.2500   -2.4020   -3.2020 N   0  0  0  0  0  0  0  0  0  0  0  0
   -2.2210   -3.2360   -3.9980 C   0  0  0  0  0  0  0  0  0  0  0  0
   -1.9400   -4.5690   -3.3440 C   0  0  0  0  0  0  0  0  0  0  0  0
   -1.7760   -4.2290   -1.9180 C   0  0  0  0  0  0  0  0  0  0  0  0
   -1.5720   -2.7260   -1.8490 C   0  0  0  0  0  0  0  0  0  0  0  0
   -1.7300   -2.0210   -0.7770 C   0  0  0  0  0  0  0  0  0  0  0  0
   -2.0600   -2.8140    0.4010 N   0  0  0  0  0  0  0  0  0  0  0  0
   -2.6390   -2.4650    1.6810 C   0  0  0  0  0  0  0  0  0  0  0  0
   -3.8860   -1.6700    1.5120 C   0  0  0  0  0  0  0  0  0  0  0  0
   -3.9950   -1.1700    0.1240 C   0  0  0  0  0  0  0  0  0  0  0  0
   -3.0900   -0.0400   -0.2530 C   0  0  0  0  0  0  0  0  0  0  0  0
   -1.6690   -0.5530   -0.5840 C   0  0  1  0  0  0  0  0  0  0  0  0
   -0.8880   -0.1660    0.5700 N   0  0  0  0  0  0  0  0  0  0  0  0
   -0.8820    1.1870    1.0940 C   0  0  0  0  0  0  0  0  0  0  0  0
   -0.5790    1.2040    2.3260 O   0  0  0  0  0  0  0  0  0  0  0  0
   -1.1830    2.3640    0.3010 C   0  0  0  0  0  0  0  0  0  0  0  0
   -0.7260    2.8190   -0.8160 C   0  0  0  0  0  0  0  0  0  0  0  0
   -1.3250    4.0540   -1.2600 O   0  0  0  0  0  0  0  0  0  0  0  0
   -0.8810    5.2520   -0.8290 C   0  0  0  0  0  0  0  0  0  0  0  0
   -1.4530    6.4220   -1.2590 C   0  0  0  0  0  0  0  0  0  0  0  0
   -0.9900    7.6600   -0.8080 C   0  0  0  0  0  0  0  0  0  0  0  0
    0.0660    7.6970    0.0880 C   0  0  0  0  0  0  0  0  0  0  0  0
    0.6030    6.5370    0.4890 N   0  0  0  0  0  0  0  0  0  0  0  0
    0.1620    5.3510    0.0590 C   0  0  0  0  0  0  0  0  0  0  0  0
    0.2850    2.3630   -1.7590 C   0  0  0  0  0  0  0  0  0  0  0  0
    0.1240    2.6690   -3.0220 O   0  0  0  0  0  0  0  0  0  0  0  0
    1.4710    1.6120   -1.5350 N   0  0  0  0  0  0  0  0  0  0  0  0
    2.8040    1.0180    0.8990 C   0  0  0  0  0  0  0  0  0  0  0  0
    2.6230    2.1940    0.5290 O   0  0  0  0  0  0  0  0  0  0  0  0
    3.4190    0.8090    2.0570 N   0  0  0  0  0  0  0  0  0  0  0  0
    3.6510   -0.4530    2.5310 C   0  0  0  0  0  0  0  0  0  0  0  0
  1  2  1  0
  2  3  2  0
  2 44  1  0
  3  4  1  0
  4  5  2  0
  5  6  1  0
  6  7  1  0
  6 44  2  0
  7  8  2  0
  8  9  1  0
  8 41  1  0
  9 10  2  0
  9 40  1  0
 10 11  1  0
 11 12  2  0
 12 13  1  0
 12 14  1  0
 14 15  1  0
 14 18  1  0
 15 16  1  0
 16 17  1  0
 17 18  1  0
 18 19  2  0
 19 20  1  0
 19 25  1  0
 20 21  1  0
 21 22  1  0
 22 23  1  0
 23 24  1  0
 25 24  1  1
 25 26  1  0
 26 27  1  0
 27 28  2  0
 27 29  1  0
 29 30  2  0
 30 31  1  0
 30 38  1  0
 31 32  1  0
 32 33  2  0
 32 37  1  0
 33 34  1  0
 34 35  2  0
 35 36  1  0
 36 37  2  0
 38 39  2  0
 38 40  1  0
 41 42  2  0
 41 43  1  0
 43 44  1  0
M  END
