
     RDKit          3D

 44 49  0  0  0  0  0  0  0  0999 V2000
   -6.4400    1.1840   -1.3090 C   0  0  0  0  0  0  0  0  0  0  0  0
   -6.2780   -0.2990   -1.1930 C   0  0  0  0  0  0  0  0  0  0  0  0
   -4.9270   -0.7790   -0.7840 C   0  0  2  0  0  0  0  0  0  0  0  0
   -5.0020   -2.3210   -0.7640 C   0  0  0  0  0  0  0  0  0  0  0  0
   -5.6560   -2.5990    0.4950 C   0  0  1  0  0  0  0  0  0  0  0  0
   -5.3450   -3.7910    1.2830 C   0  0  0  0  0  0  0  0  0  0  0  0
   -6.0670   -4.4750    2.1320 C   0  0  0  0  0  0  0  0  0  0  0  0
   -5.1670   -4.5430    3.4030 C   0  0  0  0  0  0  0  0  0  0  0  0
   -4.0360   -3.6130    2.8900 C   0  0  2  0  0  0  0  0  0  0  0  0
   -4.4940   -2.2260    2.6360 C   0  0  0  0  0  0  0  0  0  0  0  0
   -4.8110   -1.6630    1.4480 C   0  0  0  0  0  0  0  0  0  0  0  0
   -4.6160   -0.4440    0.6840 C   0  0  1  0  0  0  0  0  0  0  0  0
   -3.2380    0.0190    0.7560 N   0  0  0  0  0  0  0  0  0  0  0  0
   -2.8210    1.2920    0.4340 C   0  0  0  0  0  0  0  0  0  0  0  0
   -3.6860    2.3590    0.4630 C   0  0  0  0  0  0  0  0  0  0  0  0
   -3.2670    3.6400    0.2470 C   0  0  0  0  0  0  0  0  0  0  0  0
   -1.9580    3.8980   -0.0060 C   0  0  0  0  0  0  0  0  0  0  0  0
   -1.0660    2.8170   -0.0380 C   0  0  0  0  0  0  0  0  0  0  0  0
   -1.4570    1.5420    0.1700 C   0  0  0  0  0  0  0  0  0  0  0  0
   -0.6310    0.4310    0.0670 N   0  0  0  0  0  0  0  0  0  0  0  0
    0.8060    0.4280   -0.0770 C   0  0  0  0  0  0  0  0  0  0  0  0
    1.3670    1.5240   -0.0870 O   0  0  0  0  0  0  0  0  0  0  0  0
    1.5040   -0.7810   -0.2040 N   0  0  0  0  0  0  0  0  0  0  0  0
    2.8550   -1.0800   -0.3350 C   0  0  0  0  0  0  0  0  0  0  0  0
    4.0150   -0.4020   -0.3530 C   0  0  0  0  0  0  0  0  0  0  0  0
    4.2540    1.0350   -0.1880 C   0  0  0  0  0  0  0  0  0  0  0  0
    3.6530    1.4080    0.9420 O   0  0  0  0  0  0  0  0  0  0  0  0
    4.8980    1.9210   -0.8960 O   0  0  0  0  0  0  0  0  0  0  0  0
    5.6430    3.0390   -0.9930 C   0  0  1  0  0  0  0  0  0  0  0  0
    4.6280    4.1480   -1.4420 C   0  0  0  0  0  0  0  0  0  0  0  0
    6.3050    3.6160    0.2140 C   0  0  0  0  0  0  0  0  0  0  0  0
    7.7380    3.6630    0.1190 N   0  0  0  0  0  0  0  0  0  0  0  0
    8.5330    2.4790   -0.1330 C   0  0  0  0  0  0  0  0  0  0  0  0
    9.6000    2.3330    0.5560 O   0  0  0  0  0  0  0  0  0  0  0  0
    8.1910    1.5320   -1.0630 C   0  0  0  0  0  0  0  0  0  0  0  0
    7.9220    0.7800   -1.8190 C   0  0  0  0  0  0  0  0  0  0  0  0
    7.5770   -0.1550   -2.7930 C   0  0  0  0  0  0  0  0  0  0  0  0
    6.6500   -1.0960   -2.7260 C   0  0  0  0  0  0  0  0  0  0  0  0
    6.6170   -2.0430   -4.2930 Cl  0  0  0  0  0  0  0  0  0  0  0  0
    5.8550   -1.3370   -1.6990 N   0  0  0  0  0  0  0  0  0  0  0  0
    5.0500   -1.3860   -0.7940 C   0  0  0  0  0  0  0  0  0  0  0  0
    4.6780   -2.5620    0.1540 C   0  0  0  0  0  0  0  0  0  0  0  0
    3.2200   -2.5940   -0.3780 C   0  0  0  0  0  0  0  0  0  0  0  0
   -4.0140   -4.2180    1.4770 N   0  0  0  0  0  0  0  0  0  0  0  0
  1  2  1  0
  3  2  1  1
  3  4  1  0
  3 12  1  0
  5  4  1  6
  5  6  1  0
  5 11  1  0
  6  7  2  0
  6 44  1  0
  7  8  1  0
  9  8  1  1
  9 10  1  0
  9 44  1  0
 10 11  2  0
 11 12  1  0
 12 13  1  6
 13 14  1  0
 14 15  2  0
 14 19  1  0
 15 16  1  0
 16 17  2  0
 17 18  1  0
 18 19  2  0
 19 20  1  0
 20 21  1  0
 21 22  2  0
 21 23  1  0
 23 24  1  0
 24 25  2  0
 24 43  1  0
 25 26  1  0
 25 41  1  0
 26 27  2  0
 26 28  1  0
 28 29  1  0
 29 30  1  1
 29 31  1  0
 31 32  1  0
 32 33  1  0
 33 34  2  0
 33 35  1  0
 35 36  3  0
 36 37  1  0
 37 38  2  0
 38 39  1  0
 38 40  1  0
 40 41  2  0
 41 42  1  0
 42 43  1  0
M  END
