
     RDKit          3D

 44 48  0  0  0  0  0  0  0  0999 V2000
   -2.6950    1.0120    2.1890 C   0  0  0  0  0  0  0  0  0  0  0  0
   -2.0680    0.5920    1.0500 O   0  0  0  0  0  0  0  0  0  0  0  0
   -2.6520    0.5620   -0.2660 C   0  0  0  0  0  0  0  0  0  0  0  0
   -3.9580    0.6730   -0.2580 C   0  0  0  0  0  0  0  0  0  0  0  0
   -4.9330    0.6780   -1.3340 C   0  0  0  0  0  0  0  0  0  0  0  0
   -5.6550    1.9820   -1.6000 C   0  0  0  0  0  0  0  0  0  0  0  0
   -5.3100   -0.3210   -2.1070 C   0  0  0  0  0  0  0  0  0  0  0  0
   -4.8680   -1.7180   -2.1120 C   0  0  0  0  0  0  0  0  0  0  0  0
   -5.3990   -2.5630   -0.9340 C   0  0  0  0  0  0  0  0  0  0  0  0
   -4.3210   -2.5880    0.1200 C   0  0  0  0  0  0  0  0  0  0  0  0
   -3.0870   -2.5710   -0.3850 N   0  0  0  0  0  0  0  0  0  0  0  0
   -2.2070   -2.4770    0.6160 C   0  0  0  0  0  0  0  0  0  0  0  0
   -0.8250   -2.3080    0.4980 C   0  0  0  0  0  0  0  0  0  0  0  0
   -0.1470   -2.0880    1.6570 C   0  0  0  0  0  0  0  0  0  0  0  0
   -0.8710   -2.0590    2.8770 C   0  0  0  0  0  0  0  0  0  0  0  0
   -2.2410   -2.2320    2.9810 C   0  0  0  0  0  0  0  0  0  0  0  0
   -2.8950   -2.4400    1.7900 C   0  0  0  0  0  0  0  0  0  0  0  0
   -4.2230   -2.5160    1.4390 N   0  0  0  0  0  0  0  0  0  0  0  0
    1.3190   -1.7390    1.8430 C   0  0  1  0  0  0  0  0  0  0  0  0
    1.6030   -1.3810    3.3310 C   0  0  0  0  0  0  0  0  0  0  0  0
    2.2100   -2.8950    1.4910 C   0  0  0  0  0  0  0  0  0  0  0  0
    3.3340   -2.5440    0.5860 C   0  0  0  0  0  0  0  0  0  0  0  0
    2.6460   -1.9270   -0.6410 C   0  0  0  0  0  0  0  0  0  0  0  0
    2.2690   -0.5680   -0.1460 N   0  0  0  0  0  0  0  0  0  0  0  0
    1.7290   -0.4790    1.1370 C   0  0  0  0  0  0  0  0  0  0  0  0
    2.5320    0.5030   -1.0490 C   0  0  0  0  0  0  0  0  0  0  0  0
    2.3010    0.1410   -2.2940 O   0  0  0  0  0  0  0  0  0  0  0  0
    2.9920    1.8710   -0.9090 C   0  0  0  0  0  0  0  0  0  0  0  0
    4.3880    2.0970   -1.4770 C   0  0  0  0  0  0  0  0  0  0  0  0
    5.2120    1.2140   -1.9910 C   0  0  0  0  0  0  0  0  0  0  0  0
    6.4480    1.8890   -2.4070 C   0  0  2  0  0  0  0  0  0  0  0  0
    7.6530    1.3860   -1.6240 C   0  0  0  0  0  0  0  0  0  0  0  0
    7.4200    1.4400   -0.2460 O   0  0  0  0  0  0  0  0  0  0  0  0
    6.1770    3.2630   -2.0530 N   0  0  0  0  0  0  0  0  0  0  0  0
    5.0340    3.3250   -1.5450 N   0  0  0  0  0  0  0  0  0  0  0  0
    2.3870    2.9420   -0.4630 C   0  0  0  0  0  0  0  0  0  0  0  0
    3.5120    4.4390   -0.5030 Cl  0  0  0  0  0  0  0  0  0  0  0  0
    1.0830    3.2960    0.0010 C   0  0  0  0  0  0  0  0  0  0  0  0
   -0.1420    3.2450   -0.4040 C   0  0  0  0  0  0  0  0  0  0  0  0
   -1.1650    3.7980    0.5250 N   0  0  0  0  0  0  0  0  0  0  0  0
   -0.7280    2.7080   -1.6380 C   0  0  0  0  0  0  0  0  0  0  0  0
   -1.1150    3.5690   -2.4890 O   0  0  0  0  0  0  0  0  0  0  0  0
   -0.8950    1.2750   -1.9440 C   0  0  0  0  0  0  0  0  0  0  0  0
   -1.6970    0.4140   -1.3530 C   0  0  0  0  0  0  0  0  0  0  0  0
  1  2  1  0
  2  3  1  0
  3  4  2  0
  3 44  1  0
  4  5  1  0
  5  6  1  0
  5  7  2  0
  7  8  1  0
  8  9  1  0
  9 10  1  0
 10 11  2  0
 10 18  1  0
 11 12  1  0
 12 13  1  0
 12 17  2  0
 13 14  2  0
 14 15  1  0
 14 19  1  0
 15 16  2  0
 16 17  1  0
 17 18  1  0
 19 20  1  1
 19 21  1  0
 19 25  1  0
 21 22  1  0
 22 23  1  0
 23 24  1  0
 24 25  1  0
 24 26  1  0
 26 27  2  0
 26 28  1  0
 28 29  1  0
 28 36  2  0
 29 30  2  0
 29 35  1  0
 30 31  1  0
 31 32  1  1
 31 34  1  0
 32 33  1  0
 34 35  2  0
 36 37  1  0
 36 38  1  0
 38 39  2  0
 39 40  1  0
 39 41  1  0
 41 42  2  0
 41 43  1  0
 43 44  2  0
M  END
