
     RDKit          3D

 43 46  0  0  0  0  0  0  0  0999 V2000
   -7.0650   -1.7580    1.5940 C   0  0  0  0  0  0  0  0  0  0  0  0
   -6.3800   -1.8930    0.3560 O   0  0  0  0  0  0  0  0  0  0  0  0
   -5.2370   -2.3780    0.0960 N   0  0  0  0  0  0  0  0  0  0  0  0
   -4.3970   -3.1520   -0.3030 C   0  0  0  0  0  0  0  0  0  0  0  0
   -2.9290   -2.9110   -0.2070 C   0  0  0  0  0  0  0  0  0  0  0  0
   -2.4110   -1.8230    0.3310 C   0  0  0  0  0  0  0  0  0  0  0  0
   -3.2640   -0.7850    0.8680 C   0  0  0  0  0  0  0  0  0  0  0  0
   -3.1670    0.5120    0.5400 C   0  0  0  0  0  0  0  0  0  0  0  0
   -2.2320    1.0020   -0.3570 O   0  0  0  0  0  0  0  0  0  0  0  0
   -2.5860    2.3330   -0.6680 C   0  0  2  0  0  0  0  0  0  0  0  0
   -1.3710    3.2340   -0.7400 C   0  0  0  0  0  0  0  0  0  0  0  0
   -0.1270    2.4490   -1.0860 C   0  0  0  0  0  0  0  0  0  0  0  0
    0.6530    2.9280   -2.2240 C   0  0  0  0  0  0  0  0  0  0  0  0
    2.0690    3.1020   -2.0580 N   0  0  0  0  0  0  0  0  0  0  0  0
    2.9370    2.5630   -1.0780 C   0  0  0  0  0  0  0  0  0  0  0  0
    3.5870    3.4860   -0.4340 O   0  0  0  0  0  0  0  0  0  0  0  0
    3.1830    1.2980   -0.7290 O   0  0  0  0  0  0  0  0  0  0  0  0
    2.7480    0.2300   -0.0360 C   0  0  1  0  0  0  0  0  0  0  0  0
    1.4510   -0.1830   -0.1470 O   0  0  0  0  0  0  0  0  0  0  0  0
    1.1840   -1.0870    0.8840 C   0  0  2  0  0  0  0  0  0  0  0  0
    1.7020   -2.4180    0.3880 C   0  0  0  0  0  0  0  0  0  0  0  0
    3.1940   -2.2440    0.2050 C   0  0  0  0  0  0  0  0  0  0  0  0
    3.5920   -0.9830   -0.4880 C   0  0  2  0  0  0  0  0  0  0  0  0
    4.9680   -0.6750   -0.1330 N   0  0  0  0  0  0  0  0  0  0  0  0
    5.5430   -0.5130    1.1890 C   0  0  0  0  0  0  0  0  0  0  0  0
    7.0190   -0.7870    1.0190 C   0  0  0  0  0  0  0  0  0  0  0  0
    7.2890   -0.5930   -0.3690 N   0  0  0  0  0  0  0  0  0  0  0  0
    8.5800   -0.5420   -0.9600 C   0  0  0  0  0  0  0  0  0  0  0  0
    9.6660   -0.6640   -0.2930 N   0  0  0  0  0  0  0  0  0  0  0  0
    6.0470   -0.4640   -1.0430 C   0  0  0  0  0  0  0  0  0  0  0  0
    5.9410   -0.1970   -2.2840 O   0  0  0  0  0  0  0  0  0  0  0  0
   -0.2430   -1.0820    1.2990 C   0  0  0  0  0  0  0  0  0  0  0  0
   -1.0190   -1.7500    0.3440 O   0  0  0  0  0  0  0  0  0  0  0  0
   -3.4550    2.8090    0.3570 N   0  0  0  0  0  0  0  0  0  0  0  0
   -3.7600    4.1660    0.6660 C   0  0  0  0  0  0  0  0  0  0  0  0
   -4.8710    4.6270   -0.0520 O   0  0  0  0  0  0  0  0  0  0  0  0
   -5.1590    5.8610    0.2210 O   0  0  0  0  0  0  0  0  0  0  0  0
   -3.9560    1.6430    1.0070 C   0  0  0  0  0  0  0  0  0  0  0  0
   -4.9090    1.6660    1.8230 O   0  0  0  0  0  0  0  0  0  0  0  0
   -4.7650   -4.3700   -0.9040 O   0  0  0  0  0  0  0  0  0  0  0  0
   -6.0690   -4.7760   -1.0870 C   0  0  0  0  0  0  0  0  0  0  0  0
   -7.0110   -4.0470   -0.7090 O   0  0  0  0  0  0  0  0  0  0  0  0
   -6.4020   -5.9840   -1.6830 O   0  0  0  0  0  0  0  0  0  0  0  0
  1  2  1  0
  2  3  1  0
  3  4  2  3
  4  5  1  0
  4 40  1  0
  5  6  2  3
  6  7  1  0
  6 33  1  0
  7  8  2  0
  8  9  1  0
  8 38  1  0
  9 10  1  0
 10 11  1  1
 10 34  1  0
 11 12  1  0
 12 13  1  0
 13 14  1  0
 14 15  1  0
 15 16  2  0
 15 17  1  0
 18 17  1  6
 18 19  1  0
 18 23  1  0
 19 20  1  0
 20 21  1  6
 20 32  1  0
 21 22  1  0
 22 23  1  0
 23 24  1  1
 24 25  1  0
 24 30  1  0
 25 26  1  0
 26 27  1  0
 27 28  1  0
 27 30  1  0
 28 29  2  0
 30 31  2  0
 32 33  1  0
 34 35  1  0
 34 38  1  0
 35 36  1  0
 36 37  1  0
 38 39  2  0
 40 41  1  0
 41 42  2  0
 41 43  1  0
M  END
