
     RDKit          3D

 43 47  0  0  0  0  0  0  0  0999 V2000
   -3.4630   -3.5390   -0.0460 O   0  0  0  0  0  0  0  0  0  0  0  0
   -2.2360   -3.2180   -0.3280 C   0  0  0  0  0  0  0  0  0  0  0  0
   -2.1790   -1.9290   -0.9590 N   0  0  0  0  0  0  0  0  0  0  0  0
   -1.1470   -0.9470   -0.7170 C   0  0  0  0  0  0  0  0  0  0  0  0
   -1.1380   -0.3920    0.6890 C   0  0  1  0  0  0  0  0  0  0  0  0
   -1.0200    1.1060    0.7190 C   0  0  0  0  0  0  0  0  0  0  0  0
   -2.0140    1.6060   -0.2080 O   0  0  0  0  0  0  0  0  0  0  0  0
   -2.1880    2.9410   -0.4330 C   0  0  0  0  0  0  0  0  0  0  0  0
   -1.4540    3.7580    0.1900 O   0  0  0  0  0  0  0  0  0  0  0  0
   -3.2220    3.3880   -1.3940 C   0  0  2  0  0  0  0  0  0  0  0  0
   -4.3030    4.2040   -0.7320 C   0  0  0  0  0  0  0  0  0  0  0  0
   -5.3290    3.3100   -0.5590 O   0  0  0  0  0  0  0  0  0  0  0  0
   -5.1130    2.2070   -1.3340 C   0  0  0  0  0  0  0  0  0  0  0  0
   -3.8660    2.3050   -1.9210 O   0  0  0  0  0  0  0  0  0  0  0  0
   -2.5490   -0.6410    1.2850 C   0  0  0  0  0  0  0  0  0  0  0  0
   -2.5930    0.2480    2.3880 O   0  0  0  0  0  0  0  0  0  0  0  0
   -1.7740   -0.3010    3.3350 C   0  0  0  0  0  0  0  0  0  0  0  0
   -0.8290   -1.3500    2.8940 C   0  0  0  0  0  0  0  0  0  0  0  0
   -0.2410   -1.1140    1.5530 N   0  0  0  0  0  0  0  0  0  0  0  0
    1.0330   -1.6310    1.2880 C   0  0  0  0  0  0  0  0  0  0  0  0
    1.1940   -2.8970    1.6160 O   0  0  0  0  0  0  0  0  0  0  0  0
    2.2650   -1.1040    0.7270 C   0  0  2  0  0  0  0  0  0  0  0  0
    2.3250    0.1630    0.0380 C   0  0  0  0  0  0  0  0  0  0  0  0
    1.9310    0.3150   -1.2690 C   0  0  0  0  0  0  0  0  0  0  0  0
    1.9770    1.5260   -1.9600 C   0  0  0  0  0  0  0  0  0  0  0  0
    2.4310    2.6480   -1.3450 C   0  0  0  0  0  0  0  0  0  0  0  0
    2.4590    3.8370   -2.0750 O   0  0  0  0  0  0  0  0  0  0  0  0
    3.5780    4.1060   -2.7560 O   0  0  0  0  0  0  0  0  0  0  0  0
    4.1550    5.1280   -2.1690 O   0  0  0  0  0  0  0  0  0  0  0  0
    5.2640    4.7690   -1.5740 O   0  0  0  0  0  0  0  0  0  0  0  0
    2.8350    2.5610   -0.0540 C   0  0  0  0  0  0  0  0  0  0  0  0
    2.7880    1.3640    0.6230 C   0  0  0  0  0  0  0  0  0  0  0  0
    3.1620   -2.1650    0.2260 N   0  0  0  0  0  0  0  0  0  0  0  0
    4.3830   -2.4160    0.7750 C   0  0  0  0  0  0  0  0  0  0  0  0
    5.0120   -3.4380    0.0990 C   0  0  0  0  0  0  0  0  0  0  0  0
    4.1610   -3.7660   -0.8240 N   0  0  0  0  0  0  0  0  0  0  0  0
    2.9970   -2.9920   -0.7720 C   0  0  0  0  0  0  0  0  0  0  0  0
    1.9420   -3.1950   -1.7250 N   0  0  0  0  0  0  0  0  0  0  0  0
    0.7850   -3.9870   -1.8180 C   0  0  0  0  0  0  0  0  0  0  0  0
    0.3660   -4.3180   -3.0560 O   0  0  0  0  0  0  0  0  0  0  0  0
   -0.1010   -4.5580   -0.8290 C   0  0  0  0  0  0  0  0  0  0  0  0
    0.1450   -5.8490   -0.6490 O   0  0  0  0  0  0  0  0  0  0  0  0
   -1.1390   -4.0520   -0.0370 N   0  0  0  0  0  0  0  0  0  0  0  0
  1  2  2  0
  2  3  1  0
  2 43  1  0
  3  4  1  0
  4  5  1  0
  5  6  1  6
  5 15  1  0
  5 19  1  0
  6  7  1  0
  7  8  1  0
  8  9  2  0
 10  8  1  1
 10 11  1  0
 10 14  1  0
 11 12  1  0
 12 13  1  0
 13 14  1  0
 15 16  1  0
 16 17  1  0
 17 18  1  0
 18 19  1  0
 19 20  1  0
 20 21  2  0
 20 22  1  0
 22 23  1  6
 22 33  1  0
 23 24  2  0
 23 32  1  0
 24 25  1  0
 25 26  2  0
 26 27  1  0
 26 31  1  0
 27 28  1  0
 28 29  1  0
 29 30  1  0
 31 32  2  0
 33 34  1  0
 33 37  1  0
 34 35  2  0
 35 36  1  0
 36 37  2  0
 37 38  1  0
 38 39  1  0
 39 40  2  0
 39 41  1  0
 41 42  2  0
 41 43  1  0
M  END
