
     RDKit          3D

 43 46  0  0  0  0  0  0  0  0999 V2000
    7.1170   -1.6140   -2.2730 C   0  0  0  0  0  0  0  0  0  0  0  0
    5.8640   -0.9590   -2.2250 O   0  0  0  0  0  0  0  0  0  0  0  0
    5.6150   -0.0500   -1.2120 C   0  0  0  0  0  0  0  0  0  0  0  0
    6.5780    0.2120   -0.2610 C   0  0  0  0  0  0  0  0  0  0  0  0
    6.2800    1.1170    0.7150 C   0  0  0  0  0  0  0  0  0  0  0  0
    5.0760    1.7660    0.7870 C   0  0  0  0  0  0  0  0  0  0  0  0
    4.0800    1.5150   -0.1680 C   0  0  0  0  0  0  0  0  0  0  0  0
    2.7900    2.1900   -0.1110 C   0  0  0  0  0  0  0  0  0  0  0  0
    1.6850    1.4770    0.6090 C   0  0  2  0  0  0  0  0  0  0  0  0
    2.1970    1.2770    2.0540 C   0  0  0  0  0  0  0  0  0  0  0  0
    1.7430    1.9200    3.0290 N   0  0  0  0  0  0  0  0  0  0  0  0
    0.6920    2.9210    3.0000 C   0  0  0  0  0  0  0  0  0  0  0  0
   -0.4460    2.5600    2.9000 N   0  0  0  0  0  0  0  0  0  0  0  0
   -1.6720    2.0290    2.7860 C   0  0  0  0  0  0  0  0  0  0  0  0
   -2.5150    2.3230    3.7880 O   0  0  0  0  0  0  0  0  0  0  0  0
   -2.2560    1.2330    1.8370 O   0  0  0  0  0  0  0  0  0  0  0  0
   -2.2290   -0.0900    1.5540 C   0  0  0  0  0  0  0  0  0  0  0  0
   -2.9020   -0.3960    0.1740 C   0  0  1  0  0  0  0  0  0  0  0  0
   -4.2550   -0.1510    0.5850 O   0  0  0  0  0  0  0  0  0  0  0  0
   -5.2110   -0.1340   -0.3460 C   0  0  0  0  0  0  0  0  0  0  0  0
   -6.5470    0.0600    0.4260 C   0  0  0  0  0  0  0  0  0  0  0  0
   -6.5440    1.2310    1.1320 O   0  0  0  0  0  0  0  0  0  0  0  0
   -7.6890    1.3470    1.7630 O   0  0  0  0  0  0  0  0  0  0  0  0
   -7.8850    2.5630    2.2350 O   0  0  0  0  0  0  0  0  0  0  0  0
   -2.5900    0.6050   -0.7110 O   0  0  0  0  0  0  0  0  0  0  0  0
   -2.8630    0.6990   -2.0300 C   0  0  0  0  0  0  0  0  0  0  0  0
   -3.4590   -0.2140   -2.6190 O   0  0  0  0  0  0  0  0  0  0  0  0
   -2.4920    1.8260   -2.8040 O   0  0  0  0  0  0  0  0  0  0  0  0
   -2.7970   -1.7930   -0.2280 C   0  0  0  0  0  0  0  0  0  0  0  0
   -3.5850   -2.5290    0.5470 O   0  0  0  0  0  0  0  0  0  0  0  0
   -2.0900   -2.5270   -1.2040 N   0  0  0  0  0  0  0  0  0  0  0  0
   -2.8780   -3.3540   -2.1260 C   0  0  0  0  0  0  0  0  0  0  0  0
   -0.6460   -2.6090   -1.3630 C   0  0  0  0  0  0  0  0  0  0  0  0
   -0.1990   -3.5460   -2.1380 O   0  0  0  0  0  0  0  0  0  0  0  0
    0.3890   -1.7520   -0.7400 C   0  0  0  0  0  0  0  0  0  0  0  0
    0.4700   -0.4380   -0.6720 C   0  0  0  0  0  0  0  0  0  0  0  0
    1.4320    0.1370    0.2020 N   0  0  0  0  0  0  0  0  0  0  0  0
    2.3530   -0.6480    1.0050 C   0  0  0  0  0  0  0  0  0  0  0  0
    3.0950    0.1760    1.7540 N   0  0  0  0  0  0  0  0  0  0  0  0
    2.3200   -2.0640    0.9380 N   0  0  0  0  0  0  0  0  0  0  0  0
    1.3370   -2.5940    0.0670 C   0  0  0  0  0  0  0  0  0  0  0  0
    1.3040   -3.8770    0.0010 O   0  0  0  0  0  0  0  0  0  0  0  0
    4.4010    0.5960   -1.1490 C   0  0  0  0  0  0  0  0  0  0  0  0
  1  2  1  0
  2  3  1  0
  3  4  2  0
  3 43  1  0
  4  5  1  0
  5  6  2  0
  6  7  1  0
  7  8  1  0
  7 43  2  0
  9  8  1  6
  9 10  1  0
  9 37  1  0
 10 11  2  0
 10 39  1  0
 11 12  1  0
 12 13  2  0
 13 14  1  0
 14 15  2  0
 14 16  1  0
 16 17  1  0
 17 18  1  0
 18 19  1  1
 18 25  1  0
 18 29  1  0
 19 20  1  0
 20 21  1  0
 21 22  1  0
 22 23  1  0
 23 24  1  0
 25 26  1  0
 26 27  2  0
 26 28  1  0
 29 30  2  0
 29 31  1  0
 31 32  1  0
 31 33  1  0
 33 34  2  0
 33 35  1  0
 35 36  2  0
 35 41  1  0
 36 37  1  0
 37 38  1  0
 38 39  2  0
 38 40  1  0
 40 41  1  0
 41 42  2  0
M  END
