
     RDKit          3D

 43 45  0  0  0  0  0  0  0  0999 V2000
    1.2830    1.7420   -3.3440 C   0  0  0  0  0  0  0  0  0  0  0  0
    0.6390    0.9020   -2.2190 C   0  0  1  0  0  0  0  0  0  0  0  0
    1.3070    1.3530   -0.9660 C   0  0  0  0  0  0  0  0  0  0  0  0
    2.8340    1.4350   -1.0790 C   0  0  0  0  0  0  0  0  0  0  0  0
    3.3900    0.1390   -0.6550 N   0  0  0  0  0  0  0  0  0  0  0  0
    4.5290    0.1870    0.2240 C   0  0  0  0  0  0  0  0  0  0  0  0
    5.8530    0.2140   -0.5040 C   0  0  0  0  0  0  0  0  0  0  0  0
    6.9300    0.2630    0.5840 C   0  0  0  0  0  0  0  0  0  0  0  0
    6.7620   -0.9010    1.3590 O   0  0  0  0  0  0  0  0  0  0  0  0
    7.6310   -0.9720    2.3300 O   0  0  0  0  0  0  0  0  0  0  0  0
    2.8630   -1.1320   -1.0700 C   0  0  0  0  0  0  0  0  0  0  0  0
    3.6490   -2.0620   -0.9470 O   0  0  0  0  0  0  0  0  0  0  0  0
    1.5190   -1.4350   -1.6140 N   0  0  0  0  0  0  0  0  0  0  0  0
    1.1230   -2.6670   -1.0010 C   0  0  0  0  0  0  0  0  0  0  0  0
    1.3220   -2.7660    0.5000 C   0  0  2  0  0  0  0  0  0  0  0  0
    1.0350   -4.1580    0.9290 N   0  0  0  0  0  0  0  0  0  0  0  0
    2.0590   -4.9190    1.5340 C   0  0  0  0  0  0  0  0  0  0  0  0
    3.1810   -4.3930    1.6910 O   0  0  0  0  0  0  0  0  0  0  0  0
    1.7710   -6.2240    1.9300 O   0  0  0  0  0  0  0  0  0  0  0  0
    0.3710   -1.9220    1.3040 C   0  0  0  0  0  0  0  0  0  0  0  0
   -0.9330   -1.6160    0.6140 C   0  0  0  0  0  0  0  0  0  0  0  0
   -1.8670   -1.0890    1.6830 C   0  0  0  0  0  0  0  0  0  0  0  0
   -3.1670   -1.5370    1.5750 O   0  0  0  0  0  0  0  0  0  0  0  0
   -3.5330   -1.6440    0.2580 C   0  0  0  0  0  0  0  0  0  0  0  0
   -4.8770   -1.0650   -0.0500 C   0  0  0  0  0  0  0  0  0  0  0  0
   -5.5150   -0.4610    1.0990 N   0  0  0  0  0  0  0  0  0  0  0  0
   -5.7470    0.9350    1.2460 C   0  0  0  0  0  0  0  0  0  0  0  0
   -6.7660    1.3810    1.8450 O   0  0  0  0  0  0  0  0  0  0  0  0
   -4.8160    1.9520    0.7090 C   0  0  0  0  0  0  0  0  0  0  0  0
   -3.5650    1.6700    0.4780 O   0  0  0  0  0  0  0  0  0  0  0  0
   -2.9370    2.6980    0.0140 N   0  0  0  0  0  0  0  0  0  0  0  0
   -3.7690    3.7470   -0.0880 C   0  0  0  0  0  0  0  0  0  0  0  0
   -3.5670    4.9160   -0.4860 O   0  0  0  0  0  0  0  0  0  0  0  0
   -4.9820    3.2780    0.3570 C   0  0  0  0  0  0  0  0  0  0  0  0
   -6.2280    3.9510    0.4710 N   0  0  0  0  0  0  0  0  0  0  0  0
   -6.6570    4.6540    1.6200 C   0  0  0  0  0  0  0  0  0  0  0  0
   -5.9130    4.7030    2.6160 O   0  0  0  0  0  0  0  0  0  0  0  0
   -1.5010    2.5710   -0.3090 C   0  0  0  0  0  0  0  0  0  0  0  0
   -1.4540    2.1820   -1.7530 C   0  0  0  0  0  0  0  0  0  0  0  0
   -2.1800    2.9440   -2.4860 O   0  0  0  0  0  0  0  0  0  0  0  0
   -0.7210    1.1410   -2.2110 O   0  0  0  0  0  0  0  0  0  0  0  0
    0.9130   -0.5650   -2.5340 C   0  0  0  0  0  0  0  0  0  0  0  0
    0.5010   -0.7540   -3.7010 O   0  0  0  0  0  0  0  0  0  0  0  0
  2  1  1  6
  2  3  1  0
  2 41  1  0
  2 42  1  0
  3  4  1  0
  4  5  1  0
  5  6  1  0
  5 11  1  0
  6  7  1  0
  7  8  1  0
  8  9  1  0
  9 10  1  0
 11 12  2  0
 11 13  1  0
 13 14  1  0
 13 42  1  0
 14 15  1  0
 15 16  1  1
 15 20  1  0
 16 17  1  0
 17 18  2  0
 17 19  1  0
 20 21  1  0
 21 22  1  0
 22 23  1  0
 23 24  1  0
 24 25  1  0
 25 26  1  0
 26 27  1  0
 27 28  2  0
 27 29  1  0
 29 30  1  0
 29 34  2  0
 30 31  1  0
 31 32  1  0
 31 38  1  0
 32 33  2  0
 32 34  1  0
 34 35  1  0
 35 36  1  0
 36 37  2  0
 38 39  1  0
 39 40  2  0
 39 41  1  0
 42 43  2  0
M  END
