
     RDKit          3D

 44 48  0  0  0  0  0  0  0  0999 V2000
   -9.7850   -0.9860    1.9090 N   0  0  0  0  0  0  0  0  0  0  0  0
   -9.7540   -1.8250    0.7400 C   0  0  0  0  0  0  0  0  0  0  0  0
  -10.5680   -2.7500    0.6020 O   0  0  0  0  0  0  0  0  0  0  0  0
   -8.7230   -1.5190   -0.2500 C   0  0  0  0  0  0  0  0  0  0  0  0
   -8.6700   -2.3040   -1.3780 C   0  0  0  0  0  0  0  0  0  0  0  0
   -7.6960   -2.0180   -2.3170 C   0  0  0  0  0  0  0  0  0  0  0  0
   -6.8020   -0.9610   -2.1120 C   0  0  0  0  0  0  0  0  0  0  0  0
   -6.8720   -0.2070   -1.0030 N   0  0  0  0  0  0  0  0  0  0  0  0
   -5.9400    0.8610   -0.8340 C   0  0  2  0  0  0  0  0  0  0  0  0
   -4.6030    0.4020   -0.8370 O   0  0  0  0  0  0  0  0  0  0  0  0
   -3.8710    1.4890   -0.4130 C   0  0  2  0  0  0  0  0  0  0  0  0
   -2.5680    1.0970    0.2590 C   0  0  0  0  0  0  0  0  0  0  0  0
   -2.7910    0.3040    1.3820 O   0  0  0  0  0  0  0  0  0  0  0  0
   -1.2960   -0.0820    2.0590 P   0  0  1  0  0  0  0  0  0  0  0  0
   -0.8890    0.8950    3.1270 O   0  0  0  0  0  0  0  0  0  0  0  0
   -1.4360   -1.6010    2.7940 O   0  0  0  0  0  0  0  0  0  0  0  0
   -0.1360   -0.2000    0.8380 O   0  0  0  0  0  0  0  0  0  0  0  0
    1.0710    0.9670    0.9990 P   0  0  1  0  0  0  0  0  0  0  0  0
    0.5380    2.3400    1.2330 O   0  0  0  0  0  0  0  0  0  0  0  0
    2.1310    0.5910    2.2620 O   0  0  0  0  0  0  0  0  0  0  0  0
    1.9730    0.9750   -0.4290 O   0  0  0  0  0  0  0  0  0  0  0  0
    3.3410    1.0500   -0.1690 C   0  0  0  0  0  0  0  0  0  0  0  0
    4.1480    1.0570   -1.4490 C   0  0  1  0  0  0  0  0  0  0  0  0
    5.4720    1.1320   -1.1210 O   0  0  0  0  0  0  0  0  0  0  0  0
    6.0800   -0.0730   -1.3370 C   0  0  1  0  0  0  0  0  0  0  0  0
    7.0250   -0.4330   -0.2960 N   0  0  0  0  0  0  0  0  0  0  0  0
    6.7810   -0.9090    0.9350 C   0  0  0  0  0  0  0  0  0  0  0  0
    7.9350   -1.1140    1.5900 N   0  0  0  0  0  0  0  0  0  0  0  0
    8.9380   -0.7680    0.7800 C   0  0  0  0  0  0  0  0  0  0  0  0
   10.3080   -0.7760    0.9400 C   0  0  0  0  0  0  0  0  0  0  0  0
   10.9150   -1.2080    2.1390 N   0  0  0  0  0  0  0  0  0  0  0  0
   11.0690   -0.3590   -0.0810 N   0  0  0  0  0  0  0  0  0  0  0  0
   10.5190    0.0630   -1.2470 C   0  0  0  0  0  0  0  0  0  0  0  0
    9.1850    0.0620   -1.3780 N   0  0  0  0  0  0  0  0  0  0  0  0
    8.3570   -0.3400   -0.4060 C   0  0  0  0  0  0  0  0  0  0  0  0
    4.9940   -1.1240   -1.4710 C   0  0  2  0  0  0  0  0  0  0  0  0
    5.3830   -2.1640   -2.3070 O   0  0  0  0  0  0  0  0  0  0  0  0
    3.9040   -0.2700   -2.1330 C   0  0  2  0  0  0  0  0  0  0  0  0
    4.1190   -0.1960   -3.5110 O   0  0  0  0  0  0  0  0  0  0  0  0
   -4.7000    2.2230    0.6090 C   0  0  1  0  0  0  0  0  0  0  0  0
   -4.8820    3.5530    0.2670 O   0  0  0  0  0  0  0  0  0  0  0  0
   -6.0180    1.4790    0.5450 C   0  0  1  0  0  0  0  0  0  0  0  0
   -7.1060    2.3280    0.6790 O   0  0  0  0  0  0  0  0  0  0  0  0
   -7.8270   -0.5090   -0.1100 C   0  0  0  0  0  0  0  0  0  0  0  0
  1  2  1  0
  2  3  2  0
  2  4  1  0
  4  5  2  0
  4 44  1  0
  5  6  1  0
  6  7  2  0
  7  8  1  0
  9  8  1  1
  8 44  2  0
  9 10  1  0
  9 42  1  0
 10 11  1  0
 11 12  1  1
 11 40  1  0
 12 13  1  0
 13 14  1  0
 14 15  2  0
 14 16  1  1
 14 17  1  0
 17 18  1  0
 18 19  2  0
 18 20  1  1
 18 21  1  0
 21 22  1  0
 23 22  1  1
 23 24  1  0
 23 38  1  0
 24 25  1  0
 25 26  1  1
 25 36  1  0
 26 27  1  0
 26 35  1  0
 27 28  2  0
 28 29  1  0
 29 30  2  0
 29 35  1  0
 30 31  1  0
 30 32  1  0
 32 33  2  0
 33 34  1  0
 34 35  2  0
 36 37  1  6
 36 38  1  0
 38 39  1  6
 40 41  1  6
 40 42  1  0
 42 43  1  6
M  CHG  2   8   1  16  -1
M  END
