
     RDKit          3D

 43 45  0  0  0  0  0  0  0  0999 V2000
    7.7770    2.4640    0.7330 C   0  0  0  0  0  0  0  0  0  0  0  0
    7.5210    1.0660    0.1750 C   0  0  0  0  0  0  0  0  0  0  0  0
    6.2610    0.6280    0.7430 N   0  0  0  0  0  0  0  0  0  0  0  0
    6.0980   -0.0950    1.9820 C   0  0  0  0  0  0  0  0  0  0  0  0
    4.6280   -0.3260    2.1220 C   0  0  0  0  0  0  0  0  0  0  0  0
    4.0100    0.0260    0.8770 N   0  0  0  0  0  0  0  0  0  0  0  0
    2.7880   -0.2780    0.3570 O   0  0  0  0  0  0  0  0  0  0  0  0
    2.2560   -1.5100    0.1380 C   0  0  0  0  0  0  0  0  0  0  0  0
    3.0350   -2.4830    0.4760 O   0  0  0  0  0  0  0  0  0  0  0  0
    1.0090   -1.8670   -0.3930 N   0  0  0  0  0  0  0  0  0  0  0  0
    0.7470   -3.3190   -0.5300 C   0  0  0  0  0  0  0  0  0  0  0  0
   -0.1100   -3.5990   -1.7300 C   0  0  0  0  0  0  0  0  0  0  0  0
   -0.0810   -2.5550   -2.7320 N   0  0  0  0  0  0  0  0  0  0  0  0
   -0.0980   -1.1750   -2.3320 C   0  0  0  0  0  0  0  0  0  0  0  0
   -0.1480   -0.2680   -3.1630 O   0  0  0  0  0  0  0  0  0  0  0  0
   -0.0500   -0.9730   -0.8420 C   0  0  1  0  0  0  0  0  0  0  0  0
   -1.3250   -1.5100   -0.2350 C   0  0  0  0  0  0  0  0  0  0  0  0
   -1.2790   -2.2090    0.8020 O   0  0  0  0  0  0  0  0  0  0  0  0
   -2.5820   -1.2480   -0.8100 N   0  0  0  0  0  0  0  0  0  0  0  0
   -3.8500   -1.6650   -0.3620 C   0  0  0  0  0  0  0  0  0  0  0  0
   -4.0950   -2.2690    0.8380 C   0  0  0  0  0  0  0  0  0  0  0  0
   -5.4030   -2.6650    1.1850 C   0  0  0  0  0  0  0  0  0  0  0  0
   -6.4690   -2.4610    0.3390 C   0  0  0  0  0  0  0  0  0  0  0  0
   -6.2200   -1.8540   -0.8650 C   0  0  0  0  0  0  0  0  0  0  0  0
   -4.9530   -1.4620   -1.2190 C   0  0  0  0  0  0  0  0  0  0  0  0
    0.2300    0.4330   -0.4870 C   0  0  2  0  0  0  0  0  0  0  0  0
    0.3530    0.6500    0.9970 C   0  0  0  0  0  0  0  0  0  0  0  0
    0.1140   -0.2690    1.7990 O   0  0  0  0  0  0  0  0  0  0  0  0
    0.7310    1.8680    1.5180 O   0  0  0  0  0  0  0  0  0  0  0  0
    0.8530    2.0960    2.9080 C   0  0  0  0  0  0  0  0  0  0  0  0
   -0.7650    1.4300   -0.9910 C   0  0  0  0  0  0  0  0  0  0  0  0
   -0.5080    2.1830   -1.9720 O   0  0  0  0  0  0  0  0  0  0  0  0
   -1.9950    1.5480   -0.3880 O   0  0  0  0  0  0  0  0  0  0  0  0
   -2.9530    2.4800   -0.8390 C   0  0  0  0  0  0  0  0  0  0  0  0
   -2.6650    3.2040   -1.8040 O   0  0  0  0  0  0  0  0  0  0  0  0
   -4.2530    2.5980   -0.1940 C   0  0  0  0  0  0  0  0  0  0  0  0
   -4.5670    1.8850    0.7710 O   0  0  0  0  0  0  0  0  0  0  0  0
   -5.1800    3.5430   -0.6710 N   0  0  0  0  0  0  0  0  0  0  0  0
   -6.4670    3.7370   -0.1150 C   0  0  0  0  0  0  0  0  0  0  0  0
   -6.8350    3.0370    0.8700 O   0  0  0  0  0  0  0  0  0  0  0  0
   -7.3470    4.6750   -0.6150 O   0  0  0  0  0  0  0  0  0  0  0  0
    4.9680    0.8310    0.1830 C   0  0  0  0  0  0  0  0  0  0  0  0
    4.7520    1.6150   -0.7800 O   0  0  0  0  0  0  0  0  0  0  0  0
  1  2  1  0
  2  3  1  0
  3  4  1  0
  3 42  1  0
  4  5  1  0
  5  6  1  0
  6  7  1  0
  6 42  1  0
  7  8  1  0
  8  9  2  0
  8 10  1  0
 10 11  1  0
 10 16  1  0
 11 12  1  0
 12 13  1  0
 13 14  1  0
 14 15  2  0
 14 16  1  0
 16 17  1  1
 16 26  1  0
 17 18  2  0
 17 19  1  0
 19 20  1  0
 20 21  2  0
 20 25  1  0
 21 22  1  0
 22 23  2  0
 23 24  1  0
 24 25  2  0
 26 27  1  1
 26 31  1  0
 27 28  2  0
 27 29  1  0
 29 30  1  0
 31 32  2  0
 31 33  1  0
 33 34  1  0
 34 35  2  0
 34 36  1  0
 36 37  2  0
 36 38  1  0
 38 39  1  0
 39 40  2  0
 39 41  1  0
 42 43  2  0
M  END
