
     RDKit          3D

 40 43  0  0  0  0  0  0  0  0999 V2000
    7.9900    4.2910   -0.4120 C   0  0  0  0  0  0  0  0  0  0  0  0
    8.0090    2.8900   -0.1050 O   0  0  0  0  0  0  0  0  0  0  0  0
    6.8240    2.3090    0.3290 C   0  0  0  0  0  0  0  0  0  0  0  0
    5.6590    3.0420    0.4650 C   0  0  0  0  0  0  0  0  0  0  0  0
    4.4800    2.4710    0.8950 C   0  0  0  0  0  0  0  0  0  0  0  0
    4.4090    1.1230    1.2140 C   0  0  0  0  0  0  0  0  0  0  0  0
    2.9580    0.3630    1.7780 S   0  0  2  0  0  0  0  0  0  0  0  0
    2.2210    1.3220    2.6930 O   0  0  0  0  0  0  0  0  0  0  0  0
    3.4070   -0.7630    2.7080 O   0  0  0  0  0  0  0  0  0  0  0  0
    1.9090   -0.1840    0.5790 N   0  0  0  0  0  0  0  0  0  0  0  0
    2.3700   -1.1680   -0.3120 C   0  0  0  0  0  0  0  0  0  0  0  0
    2.6920   -0.7600   -1.7030 C   0  0  2  0  0  0  0  0  0  0  0  0
    3.7450    0.2690   -1.8880 C   0  0  0  0  0  0  0  0  0  0  0  0
    1.4160   -0.2460   -2.3910 C   0  0  0  0  0  0  0  0  0  0  0  0
    0.5300   -0.1730    0.9160 C   0  0  0  0  0  0  0  0  0  0  0  0
    0.0380   -1.4570    1.5460 C   0  0  1  0  0  0  0  0  0  0  0  0
    0.7600   -1.7030    2.7390 O   0  0  0  0  0  0  0  0  0  0  0  0
   -1.3980   -1.3760    1.9440 C   0  0  2  0  0  0  0  0  0  0  0  0
   -1.7790   -2.7040    2.5920 C   0  0  0  0  0  0  0  0  0  0  0  0
   -1.6250   -3.8610    1.7190 C   0  0  0  0  0  0  0  0  0  0  0  0
   -0.4620   -4.5960    1.6590 C   0  0  0  0  0  0  0  0  0  0  0  0
   -0.3290   -5.6970    0.8180 C   0  0  0  0  0  0  0  0  0  0  0  0
   -1.4000   -6.0470    0.0310 C   0  0  0  0  0  0  0  0  0  0  0  0
   -2.5840   -5.3330    0.0640 C   0  0  0  0  0  0  0  0  0  0  0  0
   -2.6750   -4.2500    0.9100 C   0  0  0  0  0  0  0  0  0  0  0  0
   -2.2780   -1.1110    0.8180 N   0  0  0  0  0  0  0  0  0  0  0  0
   -3.1340    0.0210    0.8480 C   0  0  0  0  0  0  0  0  0  0  0  0
   -3.0930    0.7700    1.8820 O   0  0  0  0  0  0  0  0  0  0  0  0
   -4.0060    0.3800   -0.1430 O   0  0  0  0  0  0  0  0  0  0  0  0
   -4.8180    1.5360   -0.0020 C   0  0  2  0  0  0  0  0  0  0  0  0
   -6.2780    1.2460   -0.1080 C   0  0  0  0  0  0  0  0  0  0  0  0
   -6.9080    2.4610   -0.7560 C   0  0  2  0  0  0  0  0  0  0  0  0
   -7.2010    2.2610   -2.1540 N   0  0  0  0  0  0  0  0  0  0  0  0
   -6.6420    3.3110   -2.9320 C   0  0  0  0  0  0  0  0  0  0  0  0
   -6.6500    3.4190   -4.2050 O   0  0  0  0  0  0  0  0  0  0  0  0
   -6.0810    4.2030   -2.0220 O   0  0  0  0  0  0  0  0  0  0  0  0
   -5.7820    3.4900   -0.8600 C   0  0  2  0  0  0  0  0  0  0  0  0
   -4.5900    2.5500   -1.0890 C   0  0  0  0  0  0  0  0  0  0  0  0
    5.5820    0.3970    1.0740 C   0  0  0  0  0  0  0  0  0  0  0  0
    6.7680    0.9680    0.6420 C   0  0  0  0  0  0  0  0  0  0  0  0
  1  2  1  0
  2  3  1  0
  3  4  2  0
  3 40  1  0
  4  5  1  0
  5  6  2  0
  6  7  1  0
  6 39  1  0
  7  8  2  0
  7  9  2  0
  7 10  1  6
 10 11  1  0
 10 15  1  0
 11 12  1  0
 12 13  1  1
 12 14  1  0
 15 16  1  0
 16 17  1  1
 16 18  1  0
 18 19  1  6
 18 26  1  0
 19 20  1  0
 20 21  2  0
 20 25  1  0
 21 22  1  0
 22 23  2  0
 23 24  1  0
 24 25  2  0
 26 27  1  0
 27 28  2  0
 27 29  1  0
 30 29  1  6
 30 31  1  0
 30 38  1  0
 32 31  1  6
 32 33  1  0
 32 37  1  0
 33 34  1  0
 34 35  2  0
 34 36  1  0
 36 37  1  0
 37 38  1  6
 39 40  2  0
M  END
