
     RDKit          3D

 40 44  0  0  0  0  0  0  0  0999 V2000
   -4.0160    4.9950    1.5470 C   0  0  0  0  0  0  0  0  0  0  0  0
   -4.2600    3.4760    1.7450 C   0  0  0  0  0  0  0  0  0  0  0  0
   -4.9910    2.7960    0.8800 C   0  0  0  0  0  0  0  0  0  0  0  0
   -5.2460    1.4180    1.0480 C   0  0  0  0  0  0  0  0  0  0  0  0
   -4.7070    0.7560    2.1780 C   0  0  0  0  0  0  0  0  0  0  0  0
   -5.0010   -0.6710    2.2390 C   0  0  0  0  0  0  0  0  0  0  0  0
   -6.1420   -1.3580    2.3090 N   0  0  0  0  0  0  0  0  0  0  0  0
   -5.8930   -2.6190    2.0600 O   0  0  0  0  0  0  0  0  0  0  0  0
   -4.6010   -2.8150    1.8160 C   0  0  0  0  0  0  0  0  0  0  0  0
   -4.0130   -4.1760    1.5200 C   0  0  0  0  0  0  0  0  0  0  0  0
   -3.9940   -1.6100    1.9160 C   0  0  0  0  0  0  0  0  0  0  0  0
   -2.5510   -1.3140    1.9500 C   0  0  0  0  0  0  0  0  0  0  0  0
   -1.5670   -1.6280    1.2690 O   0  0  0  0  0  0  0  0  0  0  0  0
   -0.5210   -1.9680    0.5460 C   0  0  0  0  0  0  0  0  0  0  0  0
   -0.1970   -3.2820    0.2560 C   0  0  0  0  0  0  0  0  0  0  0  0
    0.8830   -3.6020   -0.5190 C   0  0  0  0  0  0  0  0  0  0  0  0
    1.6820   -2.5580   -1.0150 C   0  0  0  0  0  0  0  0  0  0  0  0
    2.6780   -3.0410   -1.9670 C   0  0  0  0  0  0  0  0  0  0  0  0
    2.0060   -3.8020   -2.9510 C   0  0  0  0  0  0  0  0  0  0  0  0
    0.6880   -3.9170   -2.8160 O   0  0  0  0  0  0  0  0  0  0  0  0
    2.8460   -4.3670   -3.9900 C   0  0  0  0  0  0  0  0  0  0  0  0
    2.2250   -5.1030   -4.8840 O   0  0  0  0  0  0  0  0  0  0  0  0
    4.5390   -4.1150   -4.0930 Cl  0  0  0  0  0  0  0  0  0  0  0  0
    1.4460   -1.2520   -0.7630 C   0  0  0  0  0  0  0  0  0  0  0  0
    2.3690   -0.1880   -1.0790 C   0  0  0  0  0  0  0  0  0  0  0  0
    3.6700   -0.3720   -0.5620 C   0  0  0  0  0  0  0  0  0  0  0  0
    4.5940    0.6440   -0.6950 C   0  0  0  0  0  0  0  0  0  0  0  0
    4.3120    1.8110   -1.3070 C   0  0  0  0  0  0  0  0  0  0  0  0
    5.0650    2.9720   -1.5480 C   0  0  0  0  0  0  0  0  0  0  0  0
    6.4430    3.1180   -1.0510 C   0  0  0  0  0  0  0  0  0  0  0  0
    7.2530    4.6400   -1.4880 S   0  0  0  0  0  0  0  0  0  0  0  0
    6.5880    5.8750   -0.8840 O   0  0  0  0  0  0  0  0  0  0  0  0
    4.2610    3.7650   -2.1980 N   0  0  0  0  0  0  0  0  0  0  0  0
    3.0480    3.2530   -2.3920 N   0  0  0  0  0  0  0  0  0  0  0  0
    3.0500    2.0010   -1.8200 C   0  0  0  0  0  0  0  0  0  0  0  0
    2.0800    0.9900   -1.7030 C   0  0  0  0  0  0  0  0  0  0  0  0
    0.3100   -0.9660    0.0290 C   0  0  0  0  0  0  0  0  0  0  0  0
   -3.9810    1.4880    3.0270 C   0  0  0  0  0  0  0  0  0  0  0  0
   -3.7120    2.8830    2.8660 C   0  0  0  0  0  0  0  0  0  0  0  0
   -2.8400    3.8050    4.0460 Cl  0  0  0  0  0  0  0  0  0  0  0  0
  1  2  1  0
  2  3  2  0
  2 39  1  0
  3  4  1  0
  4  5  2  0
  5  6  1  0
  5 38  1  0
  6  7  2  0
  6 11  1  0
  7  8  1  0
  8  9  1  0
  9 10  1  0
  9 11  2  0
 11 12  1  0
 12 13  1  0
 13 14  1  0
 14 15  2  0
 14 37  1  0
 15 16  1  0
 16 17  2  0
 17 18  1  0
 17 24  1  0
 18 19  2  3
 19 20  1  0
 19 21  1  0
 21 22  2  0
 21 23  1  0
 24 25  1  0
 24 37  2  0
 25 26  2  0
 25 36  1  0
 26 27  1  0
 27 28  2  0
 28 29  1  0
 28 35  1  0
 29 30  1  0
 29 33  2  0
 30 31  1  0
 31 32  2  0
 33 34  1  0
 34 35  1  0
 35 36  2  0
 38 39  2  0
 39 40  1  0
M  END
