
     RDKit          3D

 40 44  0  0  0  0  0  0  0  0999 V2000
    6.8930    0.2020   -2.0430 C   0  0  0  0  0  0  0  0  0  0  0  0
    7.9230    0.1140   -1.0200 C   0  0  0  0  0  0  0  0  0  0  0  0
    9.2930    0.1240   -1.3600 C   0  0  0  0  0  0  0  0  0  0  0  0
    9.6720    0.2900   -3.0860 Cl  0  0  0  0  0  0  0  0  0  0  0  0
   10.2900    0.0140   -0.4370 C   0  0  0  0  0  0  0  0  0  0  0  0
    9.9640   -0.1120    0.8730 C   0  0  0  0  0  0  0  0  0  0  0  0
    8.6490   -0.1290    1.2730 C   0  0  0  0  0  0  0  0  0  0  0  0
    8.3450   -0.2660    2.6150 C   0  0  0  0  0  0  0  0  0  0  0  0
    9.6940   -0.4050    3.7550 Cl  0  0  0  0  0  0  0  0  0  0  0  0
    7.0570   -0.2910    3.0310 C   0  0  0  0  0  0  0  0  0  0  0  0
    6.0710   -0.1790    2.1040 C   0  0  0  0  0  0  0  0  0  0  0  0
    6.3000   -0.0360    0.7210 C   0  0  0  0  0  0  0  0  0  0  0  0
    5.2010    0.1250   -0.2220 C   0  0  0  0  0  0  0  0  0  0  0  0
    3.9930    0.0130    0.6270 O   0  0  0  0  0  0  0  0  0  0  0  0
    2.7290    0.1220    0.0330 C   0  0  0  0  0  0  0  0  0  0  0  0
    2.7400    0.3100   -1.1980 O   0  0  0  0  0  0  0  0  0  0  0  0
    1.5580    0.0230    0.7920 N   0  0  0  0  0  0  0  0  0  0  0  0
    0.2660    0.1210    0.2420 C   0  0  0  0  0  0  0  0  0  0  0  0
   -0.8170    0.2630    1.1350 C   0  0  0  0  0  0  0  0  0  0  0  0
   -2.1180    0.3540    0.7230 C   0  0  0  0  0  0  0  0  0  0  0  0
   -2.3930    0.3050   -0.6230 C   0  0  0  0  0  0  0  0  0  0  0  0
   -3.7110    0.3920   -1.1350 N   0  0  0  0  0  0  0  0  0  0  0  0
   -4.2630    1.6770   -1.4580 C   0  0  0  0  0  0  0  0  0  0  0  0
   -4.6360   -1.0290   -1.3640 S   0  0  2  0  0  0  0  0  0  0  0  0
   -3.8950   -2.2610   -0.9660 O   0  0  0  0  0  0  0  0  0  0  0  0
   -5.0870   -1.0760   -2.7950 O   0  0  0  0  0  0  0  0  0  0  0  0
   -6.0620   -0.9210   -0.3370 C   0  0  0  0  0  0  0  0  0  0  0  0
   -6.0320   -1.4060    0.9510 C   0  0  0  0  0  0  0  0  0  0  0  0
   -7.1540   -1.3210    1.7590 C   0  0  0  0  0  0  0  0  0  0  0  0
   -8.3060   -0.7520    1.2840 C   0  0  0  0  0  0  0  0  0  0  0  0
   -9.5050   -0.5490    1.8470 N   0  0  0  0  0  0  0  0  0  0  0  0
  -10.3310    0.0590    0.9650 C   0  0  0  0  0  0  0  0  0  0  0  0
   -9.6420    0.2530   -0.2000 C   0  0  0  0  0  0  0  0  0  0  0  0
  -10.1430    0.8710   -1.4080 C   0  0  0  0  0  0  0  0  0  0  0  0
   -9.4420    1.0120   -2.4410 O   0  0  0  0  0  0  0  0  0  0  0  0
   -8.3750   -0.2480   -0.0160 C   0  0  0  0  0  0  0  0  0  0  0  0
   -7.2340   -0.3550   -0.7830 C   0  0  0  0  0  0  0  0  0  0  0  0
   -1.3700    0.1680   -1.5020 C   0  0  0  0  0  0  0  0  0  0  0  0
   -0.0670    0.0780   -1.0750 C   0  0  0  0  0  0  0  0  0  0  0  0
    7.6140   -0.0140    0.3150 C   0  0  0  0  0  0  0  0  0  0  0  0
  1  2  1  0
  2  3  2  0
  2 40  1  0
  3  4  1  0
  3  5  1  0
  5  6  2  0
  6  7  1  0
  7  8  2  0
  7 40  1  0
  8  9  1  0
  8 10  1  0
 10 11  2  0
 11 12  1  0
 12 13  1  0
 12 40  2  0
 13 14  1  0
 14 15  1  0
 15 16  2  0
 15 17  1  0
 17 18  1  0
 18 19  2  0
 18 39  1  0
 19 20  1  0
 20 21  2  0
 21 22  1  0
 21 38  1  0
 22 23  1  0
 24 22  1  6
 24 25  2  0
 24 26  2  0
 24 27  1  0
 27 28  2  0
 27 37  1  0
 28 29  1  0
 29 30  2  0
 30 31  1  0
 30 36  1  0
 31 32  1  0
 32 33  2  0
 33 34  1  0
 33 36  1  0
 34 35  2  0
 36 37  2  0
 38 39  2  0
M  END
