
     RDKit          3D

 40 44  0  0  0  0  0  0  0  0999 V2000
    3.1550   -2.1440   -3.0510 C   0  0  0  0  0  0  0  0  0  0  0  0
    3.1520   -1.4720   -1.8160 O   0  0  0  0  0  0  0  0  0  0  0  0
    2.0990   -1.6290   -0.9370 C   0  0  0  0  0  0  0  0  0  0  0  0
    1.0430   -2.4470   -1.2710 C   0  0  0  0  0  0  0  0  0  0  0  0
   -0.0190   -2.6060   -0.3840 C   0  0  0  0  0  0  0  0  0  0  0  0
   -0.0070   -1.9380    0.8330 C   0  0  0  0  0  0  0  0  0  0  0  0
   -1.3560   -2.1200    1.9910 S   0  0  0  0  0  0  0  0  0  0  0  0
   -2.5470   -3.2320    1.2700 C   0  0  0  0  0  0  0  0  0  0  0  0
   -2.4020   -4.6170    1.5470 C   0  0  0  0  0  0  0  0  0  0  0  0
   -3.2540   -5.5260    0.9740 C   0  0  0  0  0  0  0  0  0  0  0  0
   -4.2530   -5.0930    0.1290 C   0  0  0  0  0  0  0  0  0  0  0  0
   -5.3350   -6.2700   -0.5960 Cl  0  0  0  0  0  0  0  0  0  0  0  0
   -4.3660   -3.7490   -0.1170 C   0  0  0  0  0  0  0  0  0  0  0  0
   -3.5120   -2.7880    0.4520 C   0  0  0  0  0  0  0  0  0  0  0  0
   -3.7880   -1.4060    0.1440 C   0  0  0  0  0  0  0  0  0  0  0  0
   -4.3210   -1.1080   -0.9800 O   0  0  0  0  0  0  0  0  0  0  0  0
   -3.5150   -0.3560    1.0050 N   0  0  0  0  0  0  0  0  0  0  0  0
   -3.7220    1.0350    0.8270 C   0  0  0  0  0  0  0  0  0  0  0  0
   -4.2790    1.5650   -0.2970 C   0  0  0  0  0  0  0  0  0  0  0  0
   -4.4870    2.9430   -0.4700 C   0  0  0  0  0  0  0  0  0  0  0  0
   -5.0990    3.4970   -1.7050 C   0  0  0  0  0  0  0  0  0  0  0  0
   -4.1050    3.7640    0.5490 C   0  0  0  0  0  0  0  0  0  0  0  0
   -3.5380    3.2380    1.6940 C   0  0  0  0  0  0  0  0  0  0  0  0
   -3.3330    1.8910    1.8670 C   0  0  0  0  0  0  0  0  0  0  0  0
   -2.6100    1.2770    3.3390 Cl  0  0  0  0  0  0  0  0  0  0  0  0
    1.0710   -1.1100    1.1590 C   0  0  0  0  0  0  0  0  0  0  0  0
    2.1020   -0.9710    0.2690 C   0  0  0  0  0  0  0  0  0  0  0  0
    3.1420   -0.1510    0.6260 O   0  0  0  0  0  0  0  0  0  0  0  0
    3.5260    0.9810   -0.0290 C   0  0  0  0  0  0  0  0  0  0  0  0
    2.9100    1.4910   -1.1380 C   0  0  0  0  0  0  0  0  0  0  0  0
    3.3550    2.6390   -1.7500 C   0  0  0  0  0  0  0  0  0  0  0  0
    4.4480    3.3080   -1.2450 C   0  0  0  0  0  0  0  0  0  0  0  0
    5.0890    2.8180   -0.1270 C   0  0  0  0  0  0  0  0  0  0  0  0
    6.1610    3.4610    0.3790 N   0  0  0  0  0  0  0  0  0  0  0  0
    6.7900    3.0000    1.4560 C   0  0  0  0  0  0  0  0  0  0  0  0
    7.7800    3.6040    1.9130 O   0  0  0  0  0  0  0  0  0  0  0  0
    6.3570    1.8770    2.0540 N   0  0  0  0  0  0  0  0  0  0  0  0
    5.2870    1.2070    1.5760 C   0  0  0  0  0  0  0  0  0  0  0  0
    4.9280    0.1650    2.1750 O   0  0  0  0  0  0  0  0  0  0  0  0
    4.6270    1.6800    0.4550 C   0  0  0  0  0  0  0  0  0  0  0  0
  1  2  1  0
  2  3  1  0
  3  4  2  0
  3 27  1  0
  4  5  1  0
  5  6  2  0
  6  7  1  0
  6 26  1  0
  7  8  1  0
  8  9  2  0
  8 14  1  0
  9 10  1  0
 10 11  2  0
 11 12  1  0
 11 13  1  0
 13 14  2  0
 14 15  1  0
 15 16  2  0
 15 17  1  0
 17 18  1  0
 18 19  2  0
 18 24  1  0
 19 20  1  0
 20 21  1  0
 20 22  2  0
 22 23  1  0
 23 24  2  0
 24 25  1  0
 26 27  2  0
 27 28  1  0
 28 29  1  0
 29 30  2  0
 29 40  1  0
 30 31  1  0
 31 32  2  0
 32 33  1  0
 33 34  1  0
 33 40  2  0
 34 35  1  0
 35 36  2  0
 35 37  1  0
 37 38  1  0
 38 39  2  0
 38 40  1  0
M  END
