
     RDKit          3D

 28 29  0  0  0  0  0  0  0  0999 V2000
   -5.0240    0.8370    2.8850 N   0  0  0  0  0  0  0  0  0  0  0  0
   -4.1220    1.6740    1.6680 S   0  0  1  0  0  0  0  0  0  0  0  0
   -4.9540    2.7840    1.0970 O   0  0  0  0  0  0  0  0  0  0  0  0
   -2.8590    2.2210    2.3000 O   0  0  0  0  0  0  0  0  0  0  0  0
   -3.6310    0.6040    0.3860 C   0  0  0  0  0  0  0  0  0  0  0  0
   -2.2870    0.2820    0.1720 C   0  0  0  0  0  0  0  0  0  0  0  0
   -1.8610   -0.5660   -0.8170 C   0  0  0  0  0  0  0  0  0  0  0  0
   -0.5130   -0.8730   -1.1150 N   0  0  0  0  0  0  0  0  0  0  0  0
    0.6270   -0.4120   -0.4200 C   0  0  0  0  0  0  0  0  0  0  0  0
    0.4910    0.3120    0.5630 O   0  0  0  0  0  0  0  0  0  0  0  0
    1.9490   -0.7770   -0.8580 N   0  0  0  0  0  0  0  0  0  0  0  0
    3.1220   -0.3300   -0.2010 C   0  0  0  0  0  0  0  0  0  0  0  0
    4.3260   -0.2580   -0.9390 C   0  0  0  0  0  0  0  0  0  0  0  0
    5.4750    0.1750   -0.3520 C   0  0  0  0  0  0  0  0  0  0  0  0
    5.5480    0.5660    0.9740 C   0  0  0  0  0  0  0  0  0  0  0  0
    6.8390    1.0430    1.5240 C   0  0  1  0  0  0  0  0  0  0  0  0
    7.3280    0.2790    2.5450 F   0  0  0  0  0  0  0  0  0  0  0  0
    7.8150    1.0450    0.5170 F   0  0  0  0  0  0  0  0  0  0  0  0
    6.7360    2.3560    1.9870 F   0  0  0  0  0  0  0  0  0  0  0  0
    4.3860    0.4970    1.6900 C   0  0  0  0  0  0  0  0  0  0  0  0
    3.1970    0.0560    1.1150 C   0  0  0  0  0  0  0  0  0  0  0  0
   -2.8700   -1.1200   -1.6340 C   0  0  0  0  0  0  0  0  0  0  0  0
   -2.4450   -1.9690   -2.6100 O   0  0  0  0  0  0  0  0  0  0  0  0
   -4.1940   -0.8360   -1.4670 C   0  0  0  0  0  0  0  0  0  0  0  0
   -5.2360   -1.3760   -2.2730 N   0  0  0  0  0  0  0  0  0  0  0  0
   -6.3710   -1.5140   -1.7470 O   0  0  0  0  0  0  0  0  0  0  0  0
   -4.9850   -1.7190   -3.5660 O   0  0  0  0  0  0  0  0  0  0  0  0
   -4.5490    0.0340   -0.4450 C   0  0  0  0  0  0  0  0  0  0  0  0
  2  1  1  1
  2  3  2  0
  2  4  2  0
  2  5  1  0
  5  6  2  0
  5 28  1  0
  6  7  1  0
  7  8  1  0
  7 22  2  0
  8  9  1  0
  9 10  2  0
  9 11  1  0
 11 12  1  0
 12 13  2  0
 12 21  1  0
 13 14  1  0
 14 15  2  0
 15 16  1  0
 15 20  1  0
 16 17  1  1
 16 18  1  0
 16 19  1  0
 20 21  2  0
 22 23  1  0
 22 24  1  0
 24 25  1  0
 24 28  2  0
 25 26  2  0
 25 27  1  0
M  CHG  2  25   1  27  -1
M  END
