
     RDKit          3D

 12 11  0  0  0  0  0  0  0  0999 V2000
    3.5330    1.5160   -0.8110 C   0  0  0  0  0  0  0  0  0  0  0  0
    2.1400    0.9990   -0.7150 C   0  0  0  0  0  0  0  0  0  0  0  0
    1.8270    0.2430    0.3210 C   0  0  0  0  0  0  0  0  0  0  0  0
    2.7810   -0.0710    1.3110 N   0  0  0  0  0  0  0  0  0  0  0  0
    0.4850   -0.2810    0.4530 C   0  0  0  0  0  0  0  0  0  0  0  0
    0.1270   -1.0930    1.5530 N   0  0  0  0  0  0  0  0  0  0  0  0
   -0.3900   -0.0050   -0.4390 N   0  0  0  0  0  0  0  0  0  0  0  0
   -1.7550   -0.4680   -0.4140 C   0  0  2  0  0  0  0  0  0  0  0  0
   -1.9700   -1.4420    0.5590 O   0  0  0  0  0  0  0  0  0  0  0  0
   -2.0140   -1.0640   -1.6490 O   0  0  0  0  0  0  0  0  0  0  0  0
   -2.5680    0.6420   -0.2130 O   0  0  0  0  0  0  0  0  0  0  0  0
   -3.8670    0.3530   -0.1690 N   0  0  0  0  0  0  0  0  0  0  0  0
  1  2  1  0
  2  3  2  3
  3  4  1  0
  3  5  1  0
  5  6  1  0
  5  7  2  3
  7  8  1  0
  8  9  1  1
  8 10  1  0
  8 11  1  0
 11 12  1  0
M  CHG  1  12   1
M  END
