
     RDKit          3D

 12 11  0  0  0  0  0  0  0  0999 V2000
   -1.9170    0.5080   -0.5300 C   0  0  0  0  0  0  0  0  0  0  0  0
   -0.6010    0.3750    0.0690 C   0  0  1  0  0  0  0  0  0  0  0  0
    0.4960   -0.1460   -0.6680 N   0  0  0  0  0  0  0  0  0  0  0  0
    1.7840   -0.2270   -0.1350 C   0  0  0  0  0  0  0  0  0  0  0  0
    2.8500   -0.8660   -0.8320 N   0  0  0  0  0  0  0  0  0  0  0  0
    2.0420    0.2600    0.9810 O   0  0  0  0  0  0  0  0  0  0  0  0
   -0.2100    1.5800    0.8430 C   0  0  0  0  0  0  0  0  0  0  0  0
   -0.1940    2.7810    0.0310 N   0  0  0  0  0  0  0  0  0  0  0  0
    0.0490    1.6390    2.0180 O   0  0  0  0  0  0  0  0  0  0  0  0
   -0.7870   -0.7680    1.1440 C   0  0  0  0  0  0  0  0  0  0  0  0
   -1.2370   -1.9710    0.5500 N   0  0  0  0  0  0  0  0  0  0  0  0
   -0.6000   -0.6270    2.2330 O   0  0  0  0  0  0  0  0  0  0  0  0
  2  1  1  6
  2  3  1  0
  2  7  1  0
  2 10  1  0
  3  4  1  0
  4  5  1  0
  4  6  2  0
  7  8  1  0
  7  9  2  0
 10 11  1  0
 10 12  2  0
M  CHG  2   5   1  11   1
M  END
