
     RDKit          3D

 12 11  0  0  0  0  0  0  0  0999 V2000
   -2.1230    0.9620    0.9670 N   0  0  0  0  0  0  0  0  0  0  0  0
   -2.2370    0.9190   -0.4440 C   0  0  0  0  0  0  0  0  0  0  0  0
   -1.1420    0.3240   -1.2300 C   0  0  0  0  0  0  0  0  0  0  0  0
   -0.0600   -0.1660   -0.6100 C   0  0  0  0  0  0  0  0  0  0  0  0
   -0.0140   -0.0910    0.7750 O   0  0  0  0  0  0  0  0  0  0  0  0
    1.0390   -0.7580   -1.3230 C   0  0  0  0  0  0  0  0  0  0  0  0
    1.0220   -0.8460   -2.7030 O   0  0  0  0  0  0  0  0  0  0  0  0
    2.0760   -1.2230   -0.6720 C   0  0  0  0  0  0  0  0  0  0  0  0
    2.1340   -1.1530    0.7410 N   0  0  0  0  0  0  0  0  0  0  0  0
    2.8230   -0.1480    1.4220 N   0  0  0  0  0  0  0  0  0  0  0  0
   -3.2830    1.3960   -0.9960 N   0  0  0  0  0  0  0  0  0  0  0  0
   -4.2640    1.9340   -0.2240 O   0  0  0  0  0  0  0  0  0  0  0  0
  1  2  1  0
  2  3  1  0
  2 11  2  3
  3  4  2  3
  4  5  1  0
  4  6  1  0
  6  7  1  0
  6  8  2  3
  8  9  1  0
  9 10  1  0
 11 12  1  0
M  CHG  1  10   1
M  END
