
     RDKit          3D

 29 29  0  0  0  0  0  0  0  0999 V2000
   -1.6590    2.1120   -2.1970 C   0  0  0  0  0  0  0  0  0  0  0  0
   -2.3540    0.9220   -1.6090 N   0  0  0  0  0  0  0  0  0  0  0  0
   -3.5310    1.2450   -0.9250 C   0  0  0  0  0  0  0  0  0  0  0  0
   -3.7880    2.5120   -0.8190 O   0  0  0  0  0  0  0  0  0  0  0  0
   -4.4490    0.2760   -0.3500 C   0  0  0  0  0  0  0  0  0  0  0  0
   -5.5680    0.9120    0.3480 N   0  0  0  0  0  0  0  0  0  0  0  0
   -6.6010   -0.0110    0.6920 C   0  0  0  0  0  0  0  0  0  0  0  0
   -7.7060    0.7600    1.3220 C   0  0  0  0  0  0  0  0  0  0  0  0
   -7.6420    2.1680    1.5020 N   0  0  0  0  0  0  0  0  0  0  0  0
   -8.7590    0.1910    1.7290 O   0  0  0  0  0  0  0  0  0  0  0  0
   -1.7760   -0.3490   -1.7220 C   0  0  2  0  0  0  0  0  0  0  0  0
   -2.6030   -1.4310   -2.3190 C   0  0  0  0  0  0  0  0  0  0  0  0
   -1.5720   -2.5930   -2.1710 C   0  0  0  0  0  0  0  0  0  0  0  0
   -1.3990   -2.4700   -0.6430 C   0  0  0  0  0  0  0  0  0  0  0  0
   -1.2460   -0.9780   -0.4360 C   0  0  1  0  0  0  0  0  0  0  0  0
    0.2400   -0.7020   -0.2950 C   0  0  0  0  0  0  0  0  0  0  0  0
    0.7140   -1.3130    0.9940 C   0  0  0  0  0  0  0  0  0  0  0  0
    2.2190   -1.0310    1.1460 C   0  0  0  0  0  0  0  0  0  0  0  0
    2.7940   -0.3990    0.2730 O   0  0  0  0  0  0  0  0  0  0  0  0
    2.8870   -1.5000    2.2700 N   0  0  0  0  0  0  0  0  0  0  0  0
    4.1810   -1.4440    2.7330 C   0  0  0  0  0  0  0  0  0  0  0  0
    4.2570   -2.2880    4.2680 S   0  0  0  0  0  0  0  0  0  0  0  0
    5.4190   -0.9610    2.4130 N   0  0  0  0  0  0  0  0  0  0  0  0
    5.9720   -0.2410    1.3710 C   0  0  0  0  0  0  0  0  0  0  0  0
    5.3190    0.1340    0.4210 O   0  0  0  0  0  0  0  0  0  0  0  0
    7.4480    0.1290    1.3550 C   0  0  0  0  0  0  0  0  0  0  0  0
    7.8090    0.9810    0.1950 C   0  0  0  0  0  0  0  0  0  0  0  0
    7.1130    2.2970    0.1500 C   0  0  0  0  0  0  0  0  0  0  0  0
    7.4500    2.9900    1.3290 O   0  0  0  0  0  0  0  0  0  0  0  0
  1  2  1  0
  2  3  1  0
 11  2  1  1
  3  4  2  0
  3  5  1  0
  5  6  1  0
  6  7  1  0
  7  8  1  0
  8  9  1  0
  8 10  2  0
 11 12  1  0
 11 15  1  0
 12 13  1  0
 13 14  1  0
 14 15  1  0
 15 16  1  6
 16 17  1  0
 17 18  1  0
 18 19  2  0
 18 20  1  0
 20 21  1  0
 21 22  2  0
 21 23  1  0
 23 24  1  0
 24 25  2  0
 24 26  1  0
 26 27  1  0
 27 28  1  0
 28 29  1  0
M  CHG  1   6   1
M  END
