
     RDKit          3D

 29 29  0  0  0  0  0  0  0  0999 V2000
   -6.1950   -2.9240    0.2790 C   0  0  0  0  0  0  0  0  0  0  0  0
   -4.8510   -2.4890    0.1300 O   0  0  0  0  0  0  0  0  0  0  0  0
   -4.4850   -1.4870   -0.7360 C   0  0  0  0  0  0  0  0  0  0  0  0
   -5.3220   -0.9070   -1.4370 O   0  0  0  0  0  0  0  0  0  0  0  0
   -3.0040   -1.1370   -0.7790 C   0  0  2  0  0  0  0  0  0  0  0  0
   -2.3460   -2.3830   -1.1950 C   0  0  0  0  0  0  0  0  0  0  0  0
   -2.6080   -3.6490   -0.5900 N   0  0  0  0  0  0  0  0  0  0  0  0
   -1.5080   -2.3590   -2.1290 O   0  0  0  0  0  0  0  0  0  0  0  0
   -2.6400   -0.5700    0.5460 C   0  0  1  0  0  0  0  0  0  0  0  0
   -1.2800   -0.0980    0.7890 C   0  0  0  0  0  0  0  0  0  0  0  0
   -0.1480   -1.0150    0.7150 C   0  0  0  0  0  0  0  0  0  0  0  0
   -0.2390   -2.2570    0.6190 O   0  0  0  0  0  0  0  0  0  0  0  0
    1.2050   -0.5210    0.7490 N   0  0  0  0  0  0  0  0  0  0  0  0
    2.3420   -1.3490    0.6780 C   0  0  0  0  0  0  0  0  0  0  0  0
    2.4290   -2.7150    0.5600 C   0  0  0  0  0  0  0  0  0  0  0  0
    3.7270   -3.0910    0.5240 N   0  0  0  0  0  0  0  0  0  0  0  0
    4.4170   -1.9840    0.6170 N   0  0  0  0  0  0  0  0  0  0  0  0
    3.6760   -0.8980    0.7130 C   0  0  0  0  0  0  0  0  0  0  0  0
    3.9910    0.5350    0.8670 C   0  0  0  0  0  0  0  0  0  0  0  0
    5.2530    0.8850    0.8650 O   0  0  0  0  0  0  0  0  0  0  0  0
    6.1500    0.8420   -0.0940 C   0  0  2  0  0  0  0  0  0  0  0  0
    7.4690    1.4320    0.5040 C   0  0  0  0  0  0  0  0  0  0  0  0
    5.8870    1.7580   -1.2840 C   0  0  0  0  0  0  0  0  0  0  0  0
    6.5910   -0.4860   -0.6530 C   0  0  0  0  0  0  0  0  0  0  0  0
   -3.7640    0.8710    0.8520 S   0  0  0  0  0  0  0  0  0  0  0  0
   -3.3220    2.1140   -0.3970 C   0  0  0  0  0  0  0  0  0  0  0  0
   -4.2270    3.3150   -0.1800 C   0  0  1  0  0  0  0  0  0  0  0  0
   -5.6600    2.8720   -0.3420 C   0  0  0  0  0  0  0  0  0  0  0  0
   -3.9980    3.8220    1.1570 N   0  0  0  0  0  0  0  0  0  0  0  0
  1  2  1  0
  2  3  1  0
  3  4  2  0
  5  3  1  1
  5  6  1  0
  5  9  1  0
  6  7  1  0
  6  8  2  0
  9 10  1  6
  9 25  1  0
 10 11  1  0
 11 12  2  0
 11 13  1  0
 13 14  1  0
 14 15  2  0
 14 18  1  0
 15 16  1  0
 16 17  1  0
 17 18  2  0
 18 19  1  0
 19 20  1  0
 20 21  1  0
 21 22  1  1
 21 23  1  0
 21 24  1  0
 25 26  1  0
 26 27  1  0
 27 28  1  1
 27 29  1  0
M  CHG  1  29   1
M  END
