
     RDKit          3D

 29 29  0  0  0  0  0  0  0  0999 V2000
    7.7760    0.7320   -0.9500 C   0  0  0  0  0  0  0  0  0  0  0  0
    7.0520   -0.3860   -1.3050 O   0  0  0  0  0  0  0  0  0  0  0  0
    6.3140   -0.9150   -0.2660 C   0  0  0  0  0  0  0  0  0  0  0  0
    5.5750   -2.1310   -0.7950 C   0  0  0  0  0  0  0  0  0  0  0  0
    4.5600   -2.9430    0.4380 S   0  0  0  0  0  0  0  0  0  0  0  0
    3.1720   -1.9280    0.9790 C   0  0  0  0  0  0  0  0  0  0  0  0
    2.1930   -1.7200   -0.1430 C   0  0  0  0  0  0  0  0  0  0  0  0
    0.9990   -0.8500    0.3290 C   0  0  2  0  0  0  0  0  0  0  0  0
    0.3730   -1.6310    1.4660 C   0  0  0  0  0  0  0  0  0  0  0  0
    0.1170   -0.7190   -0.8490 C   0  0  0  0  0  0  0  0  0  0  0  0
   -1.0970   -0.0200   -0.7540 N   0  0  0  0  0  0  0  0  0  0  0  0
   -1.2340    1.3220   -0.4390 C   0  0  0  0  0  0  0  0  0  0  0  0
   -0.2880    2.1100   -0.1970 O   0  0  0  0  0  0  0  0  0  0  0  0
   -2.5960    1.9190   -0.3720 C   0  0  2  0  0  0  0  0  0  0  0  0
   -2.5560    3.3730   -0.0120 C   0  0  0  0  0  0  0  0  0  0  0  0
   -1.8800    4.3290   -0.8100 N   0  0  0  0  0  0  0  0  0  0  0  0
   -3.1300    3.8110    1.0280 O   0  0  0  0  0  0  0  0  0  0  0  0
   -3.5240    1.1680    0.4770 C   0  0  0  0  0  0  0  0  0  0  0  0
   -4.5530    0.5160   -0.0230 C   0  0  0  0  0  0  0  0  0  0  0  0
   -4.6790    0.6060   -1.4660 N   0  0  0  0  0  0  0  0  0  0  0  0
   -5.5560   -0.2560    0.7490 C   0  0  1  0  0  0  0  0  0  0  0  0
   -6.1130   -1.3350   -0.1540 C   0  0  0  0  0  0  0  0  0  0  0  0
   -4.9370   -0.7950    1.9860 C   0  0  0  0  0  0  0  0  0  0  0  0
   -4.2790    0.3300    2.6540 N   0  0  0  0  0  0  0  0  0  0  0  0
   -3.3160    1.1110    1.9280 C   0  0  0  0  0  0  0  0  0  0  0  0
   -2.3700    1.6960    2.5120 O   0  0  0  0  0  0  0  0  0  0  0  0
    1.6490    0.3840    0.8210 C   0  0  0  0  0  0  0  0  0  0  0  0
    2.5580    1.0780   -0.0290 N   0  0  0  0  0  0  0  0  0  0  0  0
    1.4090    0.8380    1.9950 O   0  0  0  0  0  0  0  0  0  0  0  0
  1  2  1  0
  2  3  1  0
  3  4  1  0
  4  5  1  0
  5  6  1  0
  6  7  1  0
  7  8  1  0
  8  9  1  1
  8 10  1  0
  8 27  1  0
 10 11  1  0
 11 12  1  0
 12 13  2  0
 14 12  1  1
 14 15  1  0
 14 18  1  0
 15 16  1  0
 15 17  2  0
 18 19  2  0
 18 25  1  0
 19 20  1  0
 19 21  1  0
 21 22  1  6
 21 23  1  0
 23 24  1  0
 24 25  1  0
 25 26  2  0
 27 28  1  0
 27 29  2  0
M  END
