
     RDKit          3D

 29 29  0  0  0  0  0  0  0  0999 V2000
    6.3630   -2.3250   -2.0500 C   0  0  0  0  0  0  0  0  0  0  0  0
    6.6760   -2.2210   -0.6620 O   0  0  0  0  0  0  0  0  0  0  0  0
    6.3290   -1.0770    0.0240 C   0  0  0  0  0  0  0  0  0  0  0  0
    5.6880   -0.0390   -0.6120 C   0  0  0  0  0  0  0  0  0  0  0  0
    5.3480    1.0910    0.0770 C   0  0  0  0  0  0  0  0  0  0  0  0
    4.5220    2.4200   -0.7570 S   0  0  0  0  0  0  0  0  0  0  0  0
    2.7490    2.1570   -0.6360 C   0  0  0  0  0  0  0  0  0  0  0  0
    2.2770    0.9340   -1.3820 C   0  0  0  0  0  0  0  0  0  0  0  0
    0.8080    0.8330   -1.2050 C   0  0  0  0  0  0  0  0  0  0  0  0
    0.1600    1.6950   -0.5180 O   0  0  0  0  0  0  0  0  0  0  0  0
    0.1400   -0.2600   -1.8280 N   0  0  0  0  0  0  0  0  0  0  0  0
   -1.2670   -0.4500   -1.7210 C   0  0  0  0  0  0  0  0  0  0  0  0
   -1.7710   -0.6320   -0.2990 C   0  0  2  0  0  0  0  0  0  0  0  0
   -1.1480   -1.8360    0.3620 C   0  0  0  0  0  0  0  0  0  0  0  0
   -3.2080   -0.7000   -0.3790 N   0  0  0  0  0  0  0  0  0  0  0  0
   -4.0010    0.2720    0.2570 C   0  0  0  0  0  0  0  0  0  0  0  0
   -3.3760    1.1800    0.8850 O   0  0  0  0  0  0  0  0  0  0  0  0
   -5.4940    0.2570    0.2080 C   0  0  0  0  0  0  0  0  0  0  0  0
   -6.0700    1.3570    1.0270 C   0  0  2  0  0  0  0  0  0  0  0  0
   -5.6700    1.1990    2.4060 N   0  0  0  0  0  0  0  0  0  0  0  0
   -5.4850   -0.1560    2.7340 C   0  0  0  0  0  0  0  0  0  0  0  0
   -6.3990   -0.7780    3.2410 O   0  0  0  0  0  0  0  0  0  0  0  0
   -7.5370    1.3420    0.8610 C   0  0  0  0  0  0  0  0  0  0  0  0
   -8.0850    1.5040   -0.4310 N   0  0  0  0  0  0  0  0  0  0  0  0
   -8.2640    1.1890    1.8640 O   0  0  0  0  0  0  0  0  0  0  0  0
    5.6450    1.1970    1.4070 C   0  0  0  0  0  0  0  0  0  0  0  0
    6.2970    0.1400    2.0480 C   0  0  0  0  0  0  0  0  0  0  0  0
    6.6460   -1.0030    1.3730 C   0  0  0  0  0  0  0  0  0  0  0  0
    7.3100   -2.0870    2.0150 N   0  0  0  0  0  0  0  0  0  0  0  0
  1  2  1  0
  2  3  1  0
  3  4  2  0
  3 28  1  0
  4  5  1  0
  5  6  1  0
  5 26  2  0
  6  7  1  0
  7  8  1  0
  8  9  1  0
  9 10  2  0
  9 11  1  0
 11 12  1  0
 12 13  1  0
 13 14  1  6
 13 15  1  0
 15 16  1  0
 16 17  2  0
 16 18  1  0
 19 18  1  6
 19 20  1  0
 19 23  1  0
 20 21  1  0
 21 22  2  0
 23 24  1  0
 23 25  2  0
 26 27  1  0
 27 28  2  0
 28 29  1  0
M  CHG  1  20   1
M  END
