
     RDKit          3D

 30 32  0  0  0  0  0  0  0  0999 V2000
   -8.2950   -1.5380    0.8600 C   0  0  0  0  0  0  0  0  0  0  0  0
   -7.3780   -0.4500    0.3900 C   0  0  0  0  0  0  0  0  0  0  0  0
   -6.4250    0.0360    1.2160 N   0  0  0  0  0  0  0  0  0  0  0  0
   -5.5900    1.0170    0.8080 C   0  0  0  0  0  0  0  0  0  0  0  0
   -4.5390    1.5650    1.6950 C   0  0  0  0  0  0  0  0  0  0  0  0
   -3.2760    0.8220    1.5530 N   0  0  0  0  0  0  0  0  0  0  0  0
   -2.3030    1.1180    0.6820 C   0  0  0  0  0  0  0  0  0  0  0  0
   -1.2450    0.2040    0.8220 C   0  0  0  0  0  0  0  0  0  0  0  0
   -0.0470    0.2110    0.0610 N   0  0  0  0  0  0  0  0  0  0  0  0
    0.9930   -0.7130    0.2380 C   0  0  0  0  0  0  0  0  0  0  0  0
    0.8910   -1.6050    1.1060 O   0  0  0  0  0  0  0  0  0  0  0  0
    2.1990   -0.6740   -0.5570 N   0  0  0  0  0  0  0  0  0  0  0  0
    3.2200   -1.6060   -0.3620 N   0  0  0  0  0  0  0  0  0  0  0  0
    4.5740   -1.3230   -0.7380 C   0  0  0  0  0  0  0  0  0  0  0  0
    4.7510   -0.1790   -1.2510 O   0  0  0  0  0  0  0  0  0  0  0  0
    5.6590   -2.3160   -0.5300 C   0  0  0  0  0  0  0  0  0  0  0  0
    6.8770   -1.7430   -0.9370 O   0  0  0  0  0  0  0  0  0  0  0  0
    7.4740   -0.6340   -0.4010 C   0  0  0  0  0  0  0  0  0  0  0  0
    6.9500    0.0770    0.6480 C   0  0  0  0  0  0  0  0  0  0  0  0
    7.5860    1.1930    1.1630 C   0  0  0  0  0  0  0  0  0  0  0  0
    8.7790    1.5950    0.6030 C   0  0  0  0  0  0  0  0  0  0  0  0
    9.2950    0.9050   -0.4200 N   0  0  0  0  0  0  0  0  0  0  0  0
    8.6820   -0.1780   -0.9240 C   0  0  0  0  0  0  0  0  0  0  0  0
    9.1880   -0.8030   -1.8790 O   0  0  0  0  0  0  0  0  0  0  0  0
   -1.6660   -0.6340    1.8240 C   0  0  0  0  0  0  0  0  0  0  0  0
   -2.9020   -0.2330    2.2470 N   0  0  0  0  0  0  0  0  0  0  0  0
   -5.7840    1.4670   -0.4790 C   0  0  0  0  0  0  0  0  0  0  0  0
   -6.7690    0.9600   -1.3220 C   0  0  0  0  0  0  0  0  0  0  0  0
   -6.9310    1.3940   -2.5170 N   0  0  0  0  0  0  0  0  0  0  0  0
   -7.5720   -0.0150   -0.8650 N   0  0  0  0  0  0  0  0  0  0  0  0
  1  2  1  0
  2  3  2  0
  2 30  1  0
  3  4  1  0
  4  5  1  0
  4 27  2  0
  5  6  1  0
  6  7  1  0
  6 26  1  0
  7  8  2  0
  8  9  1  0
  8 25  1  0
  9 10  1  0
 10 11  2  0
 10 12  1  0
 12 13  1  0
 13 14  1  0
 14 15  2  0
 14 16  1  0
 16 17  1  0
 17 18  1  0
 18 19  2  0
 18 23  1  0
 19 20  1  0
 20 21  2  0
 21 22  1  0
 22 23  1  0
 23 24  2  0
 25 26  2  0
 27 28  1  0
 28 29  2  0
 28 30  1  0
M  CHG  1  29   1
M  END
