
     RDKit          3D

 30 31  0  0  0  0  0  0  0  0999 V2000
   -5.6080    1.1880   -3.3410 C   0  0  0  0  0  0  0  0  0  0  0  0
   -4.3490    0.9100   -2.6150 C   0  0  0  0  0  0  0  0  0  0  0  0
   -3.7020   -0.2650   -2.7880 C   0  0  0  0  0  0  0  0  0  0  0  0
   -4.2350   -1.2410   -3.6760 C   0  0  0  0  0  0  0  0  0  0  0  0
   -3.6990   -2.3960   -3.9510 C   0  0  0  0  0  0  0  0  0  0  0  0
   -4.3490   -3.2260   -4.8310 F   0  0  0  0  0  0  0  0  0  0  0  0
   -2.1860   -2.9700   -3.3260 Cl  0  0  0  0  0  0  0  0  0  0  0  0
   -2.5210   -0.4290   -2.0480 N   0  0  0  0  0  0  0  0  0  0  0  0
   -1.3480    0.3640   -2.2850 C   0  0  0  0  0  0  0  0  0  0  0  0
   -1.2740    1.4890   -2.8020 O   0  0  0  0  0  0  0  0  0  0  0  0
   -0.1760   -0.4200   -1.7870 C   0  0  0  0  0  0  0  0  0  0  0  0
   -0.7730   -1.1460   -0.6090 C   0  0  1  0  0  0  0  0  0  0  0  0
   -0.6180   -0.3910    0.6220 N   0  0  0  0  0  0  0  0  0  0  0  0
    0.7590   -0.2110    1.0140 C   0  0  2  0  0  0  0  0  0  0  0  0
    0.9990   -1.0560    2.2140 C   0  0  0  0  0  0  0  0  0  0  0  0
    2.6210   -1.0220    2.9210 S   0  0  0  0  0  0  0  0  0  0  0  0
    3.8460   -1.8220    1.8910 C   0  0  0  0  0  0  0  0  0  0  0  0
    3.4540   -2.5050    0.8530 C   0  0  0  0  0  0  0  0  0  0  0  0
    4.2770   -3.2330   -0.1230 C   0  0  0  0  0  0  0  0  0  0  0  0
    6.0200   -3.2330    0.2780 S   0  0  0  0  0  0  0  0  0  0  0  0
    6.2460   -2.2330    1.7310 C   0  0  0  0  0  0  0  0  0  0  0  0
    5.2210   -1.6820    2.3300 C   0  0  0  0  0  0  0  0  0  0  0  0
    1.1060    1.2420    1.2080 C   0  0  0  0  0  0  0  0  0  0  0  0
    0.3120    1.9290    2.2440 C   0  0  0  0  0  0  0  0  0  0  0  0
   -0.5750    1.3100    2.9260 O   0  0  0  0  0  0  0  0  0  0  0  0
    0.5560    3.2970    2.4660 N   0  0  0  0  0  0  0  0  0  0  0  0
   -0.1900    4.0070    3.4690 C   0  0  0  0  0  0  0  0  0  0  0  0
    1.5420    3.9940    1.6960 C   0  0  0  0  0  0  0  0  0  0  0  0
   -2.2250   -1.2720   -0.9450 C   0  0  0  0  0  0  0  0  0  0  0  0
   -3.0540   -2.0020   -0.3510 O   0  0  0  0  0  0  0  0  0  0  0  0
  1  2  1  0
  2  3  2  3
  3  4  1  0
  3  8  1  0
  4  5  2  3
  5  6  1  0
  5  7  1  0
  8  9  1  0
  8 29  1  0
  9 10  2  0
  9 11  1  0
 11 12  1  0
 12 13  1  1
 12 29  1  0
 13 14  1  0
 14 15  1  1
 14 23  1  0
 15 16  1  0
 16 17  1  0
 17 18  2  0
 17 22  1  0
 18 19  1  0
 19 20  1  0
 20 21  1  0
 21 22  2  0
 23 24  1  0
 24 25  2  0
 24 26  1  0
 26 27  1  0
 26 28  1  0
 29 30  2  0
M  CHG  1  13   1
M  END
