
     RDKit          3D

 30 32  0  0  0  0  0  0  0  0999 V2000
    0.8530   -4.5860    0.7250 C   0  0  0  0  0  0  0  0  0  0  0  0
   -0.3470   -3.7230    0.9370 C   0  0  0  0  0  0  0  0  0  0  0  0
   -0.0780   -2.3400    1.1840 N   0  0  2  0  0  0  0  0  0  0  0  0
    0.1330   -1.6080   -0.0270 C   0  0  0  0  0  0  0  0  0  0  0  0
   -0.6180   -0.3010   -0.1020 C   0  0  0  0  0  0  0  0  0  0  0  0
   -2.0830   -0.4450   -0.0230 C   0  0  0  0  0  0  0  0  0  0  0  0
   -2.5850   -1.5870    0.0300 O   0  0  0  0  0  0  0  0  0  0  0  0
   -2.9280    0.6780   -0.0070 N   0  0  0  0  0  0  0  0  0  0  0  0
   -2.5030    2.0540   -0.0700 C   0  0  0  0  0  0  0  0  0  0  0  0
   -3.5200    2.6540   -1.0370 C   0  0  0  0  0  0  0  0  0  0  0  0
   -4.7270    1.7340   -0.9890 C   0  0  2  0  0  0  0  0  0  0  0  0
   -5.9320    2.4970   -0.5650 C   0  0  0  0  0  0  0  0  0  0  0  0
   -7.0060    2.4660   -1.3210 C   0  0  0  0  0  0  0  0  0  0  0  0
   -7.0160    1.7500   -2.4700 F   0  0  0  0  0  0  0  0  0  0  0  0
   -8.4300    3.3550   -0.8370 Cl  0  0  0  0  0  0  0  0  0  0  0  0
   -4.3690    0.6900    0.0780 C   0  0  0  0  0  0  0  0  0  0  0  0
    0.9550   -2.1120    2.1800 C   0  0  0  0  0  0  0  0  0  0  0  0
    2.1710   -1.4720    1.6230 C   0  0  0  0  0  0  0  0  0  0  0  0
    3.2220   -2.0960    0.9830 C   0  0  0  0  0  0  0  0  0  0  0  0
    4.1310   -1.1190    0.6340 C   0  0  0  0  0  0  0  0  0  0  0  0
    3.6000    0.0520    1.0720 C   0  0  0  0  0  0  0  0  0  0  0  0
    4.2040    1.3890    0.9330 C   0  0  0  0  0  0  0  0  0  0  0  0
    4.8570    1.7480   -0.1330 C   0  0  0  0  0  0  0  0  0  0  0  0
    5.1450    0.7470   -1.5780 S   0  0  0  0  0  0  0  0  0  0  0  0
    6.0220    1.9950   -2.5140 C   0  0  0  0  0  0  0  0  0  0  0  0
    6.6120    1.8630   -4.0440 S   0  0  0  0  0  0  0  0  0  0  0  0
    6.1020    3.1190   -1.6630 N   0  0  0  0  0  0  0  0  0  0  0  0
    5.4980    3.0060   -0.4150 C   0  0  0  0  0  0  0  0  0  0  0  0
    5.5110    3.9740    0.4420 O   0  0  0  0  0  0  0  0  0  0  0  0
    2.4620   -0.1920    1.6410 O   0  0  0  0  0  0  0  0  0  0  0  0
  1  2  1  0
  3  2  1  6
  3  4  1  0
  3 17  1  0
  4  5  1  0
  5  6  1  0
  6  7  2  0
  6  8  1  0
  8  9  1  0
  8 16  1  0
  9 10  1  0
 10 11  1  0
 11 12  1  1
 11 16  1  0
 12 13  2  3
 13 14  1  0
 13 15  1  0
 17 18  1  0
 18 19  2  0
 18 30  1  0
 19 20  1  0
 20 21  2  0
 21 22  1  0
 21 30  1  0
 22 23  2  3
 23 24  1  0
 23 28  1  0
 24 25  1  0
 25 26  2  0
 25 27  1  0
 27 28  1  0
 28 29  2  0
M  CHG  1   3   1
M  END
