
     RDKit          3D

 30 32  0  0  0  0  0  0  0  0999 V2000
   -0.2400   -2.0230    1.4990 C   0  0  0  0  0  0  0  0  0  0  0  0
   -1.3890   -1.5290    0.7260 C   0  0  0  0  0  0  0  0  0  0  0  0
   -2.4380   -2.1920    0.3860 N   0  0  0  0  0  0  0  0  0  0  0  0
   -3.4000   -1.6660   -0.2600 C   0  0  0  0  0  0  0  0  0  0  0  0
   -4.4210   -2.6860   -0.8890 C   0  0  1  0  0  0  0  0  0  0  0  0
   -3.5330   -3.6640   -1.7660 C   0  0  0  0  0  0  0  0  0  0  0  0
   -5.1650   -3.5090    0.1290 C   0  0  0  0  0  0  0  0  0  0  0  0
   -3.4100   -0.4270   -0.5660 N   0  0  0  0  0  0  0  0  0  0  0  0
   -2.3400    0.4380   -0.2690 C   0  0  0  0  0  0  0  0  0  0  0  0
   -2.4330    1.7600   -0.5280 N   0  0  0  0  0  0  0  0  0  0  0  0
   -3.7150    2.3020   -0.8780 C   0  0  0  0  0  0  0  0  0  0  0  0
   -4.2860    3.5830   -0.3500 C   0  0  0  0  0  0  0  0  0  0  0  0
   -3.0900    4.6020   -0.6810 N   0  0  0  0  0  0  0  0  0  0  0  0
   -2.0940    4.0050   -0.3500 C   0  0  0  0  0  0  0  0  0  0  0  0
   -1.2670    4.8160    0.7200 O   0  0  0  0  0  0  0  0  0  0  0  0
   -1.3270    2.7880   -0.4970 C   0  0  0  0  0  0  0  0  0  0  0  0
   -1.2800   -0.0990    0.3690 C   0  0  0  0  0  0  0  0  0  0  0  0
    0.0840    0.3040    0.1640 C   0  0  0  0  0  0  0  0  0  0  0  0
    0.9980    1.2180    0.6580 N   0  0  0  0  0  0  0  0  0  0  0  0
    2.2790    1.1530    0.1610 C   0  0  0  0  0  0  0  0  0  0  0  0
    2.3030    0.1900   -0.8750 O   0  0  0  0  0  0  0  0  0  0  0  0
    3.6220    1.6300    0.2710 C   0  0  0  0  0  0  0  0  0  0  0  0
    4.0640    2.7310    0.4020 O   0  0  0  0  0  0  0  0  0  0  0  0
    4.5450    0.5150    0.2730 N   0  0  0  0  0  0  0  0  0  0  0  0
    5.8810    0.3020    0.2370 C   0  0  0  0  0  0  0  0  0  0  0  0
    6.9960    1.1090    0.0840 C   0  0  0  0  0  0  0  0  0  0  0  0
    8.0860    0.3310    0.1080 N   0  0  0  0  0  0  0  0  0  0  0  0
    7.7100   -0.9590    0.2780 N   0  0  0  0  0  0  0  0  0  0  0  0
    6.4800   -0.9760    0.3430 C   0  0  0  0  0  0  0  0  0  0  0  0
    5.6450   -2.2230    0.4470 N   0  0  0  0  0  0  0  0  0  0  0  0
  1  2  1  0
  2  3  2  0
  2 17  1  0
  3  4  1  0
  4  5  1  0
  4  8  2  0
  5  6  1  6
  5  7  1  0
  8  9  1  0
  9 10  1  0
  9 17  2  0
 10 11  1  0
 10 16  1  0
 11 12  1  0
 12 13  1  0
 13 14  1  0
 14 15  2  0
 14 16  1  0
 17 18  1  0
 18 19  1  0
 19 20  1  0
 20 21  2  0
 20 22  1  0
 22 23  2  0
 22 24  1  0
 24 25  1  0
 25 26  1  0
 25 29  2  0
 26 27  2  0
 27 28  1  0
 28 29  1  0
 29 30  1  0
M  CHG  1  27   1
M  END
