
     RDKit          3D

 30 32  0  0  0  0  0  0  0  0999 V2000
    7.6140    7.4430   -0.8190 C   0  0  0  0  0  0  0  0  0  0  0  0
    6.5860    6.4410   -1.1780 C   0  0  0  0  0  0  0  0  0  0  0  0
    6.8210    5.5980   -2.1120 N   0  0  0  0  0  0  0  0  0  0  0  0
    5.8090    4.6550   -2.4290 N   0  0  0  0  0  0  0  0  0  0  0  0
    5.4340    3.7650   -1.3810 C   0  0  0  0  0  0  0  0  0  0  0  0
    5.9840    3.8270   -0.2620 O   0  0  0  0  0  0  0  0  0  0  0  0
    4.3850    2.7840   -1.6630 C   0  0  0  0  0  0  0  0  0  0  0  0
    3.8650    2.7180   -2.8290 O   0  0  0  0  0  0  0  0  0  0  0  0
    3.9690    1.9330   -0.6230 N   0  0  0  0  0  0  0  0  0  0  0  0
    2.9320    0.9600   -0.8610 C   0  0  0  0  0  0  0  0  0  0  0  0
    2.6630    0.2030    0.4260 C   0  0  0  0  0  0  0  0  0  0  0  0
    1.6120   -0.7560    0.1900 N   0  0  0  0  0  0  0  0  0  0  0  0
    1.8100   -2.0220   -0.1890 C   0  0  0  0  0  0  0  0  0  0  0  0
    2.9970   -2.3940   -0.3510 O   0  0  0  0  0  0  0  0  0  0  0  0
    0.7720   -2.8380   -0.3830 N   0  0  0  0  0  0  0  0  0  0  0  0
   -0.5180   -2.4610   -0.2140 C   0  0  0  0  0  0  0  0  0  0  0  0
   -1.7290   -3.0130   -0.3220 N   0  0  0  0  0  0  0  0  0  0  0  0
   -2.6960   -2.1460   -0.0260 C   0  0  0  0  0  0  0  0  0  0  0  0
   -4.1270   -2.3550   -0.0290 N   0  0  0  0  0  0  0  0  0  0  0  0
   -4.5940   -3.6200   -0.3770 C   0  0  0  0  0  0  0  0  0  0  0  0
   -5.5790   -4.2470    0.1020 C   0  0  0  0  0  0  0  0  0  0  0  0
   -6.5160   -3.8730    1.1380 C   0  0  0  0  0  0  0  0  0  0  0  0
   -7.5480   -4.6550    1.5150 C   0  0  0  0  0  0  0  0  0  0  0  0
   -8.2850   -4.0430    2.5350 N   0  0  0  0  0  0  0  0  0  0  0  0
   -7.6250   -2.8350    2.7890 C   0  0  0  0  0  0  0  0  0  0  0  0
   -6.5920   -2.7040    1.9890 C   0  0  0  0  0  0  0  0  0  0  0  0
   -2.0650   -0.9960    0.2830 N   0  0  0  0  0  0  0  0  0  0  0  0
   -0.7320   -1.1610    0.1750 C   0  0  0  0  0  0  0  0  0  0  0  0
    0.3490   -0.3360    0.3690 C   0  0  0  0  0  0  0  0  0  0  0  0
    0.1020    0.8550    0.7290 O   0  0  0  0  0  0  0  0  0  0  0  0
  1  2  1  0
  2  3  2  3
  3  4  1  0
  4  5  1  0
  5  6  2  0
  5  7  1  0
  7  8  2  0
  7  9  1  0
  9 10  1  0
 10 11  1  0
 11 12  1  0
 12 13  1  0
 12 29  1  0
 13 14  2  0
 13 15  1  0
 15 16  1  0
 16 17  1  0
 16 28  2  0
 17 18  2  0
 18 19  1  0
 18 27  1  0
 19 20  1  0
 20 21  2  3
 21 22  1  0
 22 23  2  0
 22 26  1  0
 23 24  1  0
 24 25  1  0
 25 26  2  0
 27 28  1  0
 28 29  1  0
 29 30  2  0
M  CHG  1  24   1
M  END
