
     RDKit          3D

 26 28  0  0  0  0  0  0  0  0999 V2000
   -6.0590   -3.5740   -0.2580 C   0  0  0  0  0  0  0  0  0  0  0  0
   -5.1940   -2.3680   -0.2560 C   0  0  0  0  0  0  0  0  0  0  0  0
   -4.5520   -2.0340    0.8400 C   0  0  0  0  0  0  0  0  0  0  0  0
   -3.6450   -0.9090    1.1170 C   0  0  0  0  0  0  0  0  0  0  0  0
   -3.5680    0.2710    0.5650 C   0  0  0  0  0  0  0  0  0  0  0  0
   -2.5860    1.1900    1.0240 N   0  0  0  0  0  0  0  0  0  0  0  0
   -1.6700    1.7510    0.1360 N   0  0  0  0  0  0  0  0  0  0  0  0
   -0.2590    1.7150    0.3210 C   0  0  0  0  0  0  0  0  0  0  0  0
    0.1550    1.1360    1.3560 O   0  0  0  0  0  0  0  0  0  0  0  0
    0.6510    2.3300   -0.6580 C   0  0  0  0  0  0  0  0  0  0  0  0
    1.9970    2.2130   -0.3690 O   0  0  0  0  0  0  0  0  0  0  0  0
    2.7710    1.1070   -0.2190 C   0  0  0  0  0  0  0  0  0  0  0  0
    2.3570   -0.1800   -0.3350 C   0  0  0  0  0  0  0  0  0  0  0  0
    3.2250   -1.2500   -0.1630 C   0  0  0  0  0  0  0  0  0  0  0  0
    4.5570   -1.0530    0.1350 C   0  0  0  0  0  0  0  0  0  0  0  0
    5.3980   -2.1210    0.3010 C   0  0  0  0  0  0  0  0  0  0  0  0
    6.7340   -1.8740    0.6010 C   0  0  0  0  0  0  0  0  0  0  0  0
    7.1940   -0.5830    0.7280 C   0  0  0  0  0  0  0  0  0  0  0  0
    6.3230    0.4680    0.5550 C   0  0  0  0  0  0  0  0  0  0  0  0
    4.9800    0.2620    0.2540 C   0  0  0  0  0  0  0  0  0  0  0  0
    4.1210    1.3270    0.0840 C   0  0  0  0  0  0  0  0  0  0  0  0
    4.6080    2.6240    0.2160 O   0  0  0  0  0  0  0  0  0  0  0  0
   -4.3900    0.8330   -0.5240 C   0  0  0  0  0  0  0  0  0  0  0  0
   -4.5170    2.3210   -0.5280 C   0  0  0  0  0  0  0  0  0  0  0  0
   -5.0340    0.2730   -1.4890 N   0  0  0  0  0  0  0  0  0  0  0  0
   -5.1170   -1.4660   -1.8020 S   0  0  0  0  0  0  0  0  0  0  0  0
  1  2  1  0
  2  3  2  0
  2 26  1  0
  3  4  1  0
  4  5  2  0
  5  6  1  0
  5 23  1  0
  6  7  1  0
  7  8  1  0
  8  9  2  0
  8 10  1  0
 10 11  1  0
 11 12  1  0
 12 13  2  0
 12 21  1  0
 13 14  1  0
 14 15  2  0
 15 16  1  0
 15 20  1  0
 16 17  2  0
 17 18  1  0
 18 19  2  0
 19 20  1  0
 20 21  2  0
 21 22  1  0
 23 24  1  0
 23 25  2  0
 25 26  1  0
M  END
