
     RDKit          3D

 16 17  0  0  0  0  0  0  0  0999 V2000
   -2.9170    1.4750   -0.7940 N   0  0  0  0  0  0  0  0  0  0  0  0
   -2.7100    0.0930   -0.4510 C   0  0  0  0  0  0  0  0  0  0  0  0
   -3.5840   -0.8260   -0.3040 N   0  0  0  0  0  0  0  0  0  0  0  0
   -2.9820   -2.0370    0.0310 O   0  0  0  0  0  0  0  0  0  0  0  0
   -1.7420   -1.6780    0.6720 C   0  0  0  0  0  0  0  0  0  0  0  0
   -1.3780   -0.5050   -0.2090 C   0  0  1  0  0  0  0  0  0  0  0  0
   -0.7850   -0.9690   -1.3820 O   0  0  0  0  0  0  0  0  0  0  0  0
   -0.4560    0.4690    0.4840 C   0  0  2  0  0  0  0  0  0  0  0  0
   -0.2360    1.5240   -0.4000 O   0  0  0  0  0  0  0  0  0  0  0  0
    0.8790   -0.2010    0.7170 C   0  0  1  0  0  0  0  0  0  0  0  0
    1.3750   -0.6700   -0.4920 O   0  0  0  0  0  0  0  0  0  0  0  0
    2.3650    0.1120   -1.0320 C   0  0  0  0  0  0  0  0  0  0  0  0
    3.5980   -0.0320   -0.1340 C   0  0  0  0  0  0  0  0  0  0  0  0
    3.2120    0.5590    1.1170 O   0  0  0  0  0  0  0  0  0  0  0  0
    1.8440    0.7710    1.2920 C   0  0  0  0  0  0  0  0  0  0  0  0
    1.4210    1.7890    1.9400 O   0  0  0  0  0  0  0  0  0  0  0  0
  1  2  1  0
  2  3  2  0
  2  6  1  0
  3  4  1  0
  4  5  1  0
  5  6  1  0
  6  7  1  6
  6  8  1  0
  8  9  1  6
  8 10  1  0
 10 11  1  6
 10 15  1  0
 11 12  1  0
 12 13  1  0
 13 14  1  0
 14 15  1  0
 15 16  2  0
M  END
