
     RDKit          3D

 16 17  0  0  0  0  0  0  0  0999 V2000
   -2.2730    0.2880    1.1550 C   0  0  0  0  0  0  0  0  0  0  0  0
   -1.4260    0.1550   -0.0400 C   0  0  1  0  0  0  0  0  0  0  0  0
   -1.3550    1.4330   -0.7200 O   0  0  0  0  0  0  0  0  0  0  0  0
   -0.2160    2.0870   -1.0090 C   0  0  0  0  0  0  0  0  0  0  0  0
   -0.2760    2.9350   -1.9500 O   0  0  0  0  0  0  0  0  0  0  0  0
    0.9380    1.8440   -0.3790 N   0  0  0  0  0  0  0  0  0  0  0  0
    1.0160    0.6210    0.5180 C   0  0  2  0  0  0  0  0  0  0  0  0
    2.3580    0.3290    0.7070 C   0  0  0  0  0  0  0  0  0  0  0  0
    3.0890   -0.4910   -0.1460 N   0  0  0  0  0  0  0  0  0  0  0  0
    3.0580    0.8630    1.6760 O   0  0  0  0  0  0  0  0  0  0  0  0
   -0.0190   -0.3990    0.2440 C   0  0  1  0  0  0  0  0  0  0  0  0
   -0.0680   -1.2790    1.3380 O   0  0  0  0  0  0  0  0  0  0  0  0
    0.2750   -1.1650   -0.8980 O   0  0  0  0  0  0  0  0  0  0  0  0
   -0.8980   -1.9190   -0.9560 C   0  0  0  0  0  0  0  0  0  0  0  0
   -1.8890   -0.8650   -1.0370 C   0  0  0  0  0  0  0  0  0  0  0  0
   -2.8450   -0.7960   -1.7550 O   0  0  0  0  0  0  0  0  0  0  0  0
  2  1  1  1
  2  3  1  0
  2 11  1  0
  2 15  1  0
  3  4  1  0
  4  5  2  0
  4  6  1  0
  6  7  1  0
  7  8  1  6
  7 11  1  0
  8  9  1  0
  8 10  2  0
 11 12  1  1
 11 13  1  0
 13 14  1  0
 14 15  1  0
 15 16  2  0
M  END
