
     RDKit          3D

 26 28  0  0  0  0  0  0  0  0999 V2000
   -7.1440    1.6130   -1.1980 C   0  0  0  0  0  0  0  0  0  0  0  0
   -6.1510    2.3660   -0.3200 C   0  0  0  0  0  0  0  0  0  0  0  0
   -4.8410    2.0390   -0.4690 O   0  0  0  0  0  0  0  0  0  0  0  0
   -3.9820    1.0560   -0.3060 C   0  0  0  0  0  0  0  0  0  0  0  0
   -2.6490    1.1890   -0.6950 C   0  0  0  0  0  0  0  0  0  0  0  0
   -1.7340    0.1530   -0.5410 C   0  0  0  0  0  0  0  0  0  0  0  0
   -0.3150    0.4270   -1.0190 C   0  0  0  0  0  0  0  0  0  0  0  0
    0.6390    1.0940    0.2730 S   0  0  0  0  0  0  0  0  0  0  0  0
    1.6810    0.1250    1.3050 C   0  0  0  0  0  0  0  0  0  0  0  0
    3.0850    0.2680    0.7570 C   0  0  0  0  0  0  0  0  0  0  0  0
    3.9180   -0.6520    0.2890 C   0  0  0  0  0  0  0  0  0  0  0  0
    5.2600   -0.3580   -0.0030 C   0  0  0  0  0  0  0  0  0  0  0  0
    6.1400   -1.3540   -0.4580 C   0  0  0  0  0  0  0  0  0  0  0  0
    5.7540   -2.6860   -0.6660 N   0  0  0  0  0  0  0  0  0  0  0  0
    7.4550   -0.9520   -0.6850 C   0  0  0  0  0  0  0  0  0  0  0  0
    7.8300    0.3670   -0.4600 C   0  0  0  0  0  0  0  0  0  0  0  0
    6.9520    1.2530   -0.0230 N   0  0  0  0  0  0  0  0  0  0  0  0
    5.6750    0.9250    0.2140 C   0  0  0  0  0  0  0  0  0  0  0  0
    4.8220    1.9130    0.7050 N   0  0  0  0  0  0  0  0  0  0  0  0
    3.5650    1.6020    0.9760 C   0  0  0  0  0  0  0  0  0  0  0  0
    2.7740    2.4730    1.4210 O   0  0  0  0  0  0  0  0  0  0  0  0
   -2.0780   -1.0220   -0.0150 C   0  0  0  0  0  0  0  0  0  0  0  0
   -3.4150   -1.2170    0.3980 C   0  0  0  0  0  0  0  0  0  0  0  0
   -3.7650   -2.4120    0.9400 O   0  0  0  0  0  0  0  0  0  0  0  0
   -5.0470   -2.7680    1.3960 C   0  0  0  0  0  0  0  0  0  0  0  0
   -4.3030   -0.1680    0.2360 C   0  0  0  0  0  0  0  0  0  0  0  0
  1  2  1  0
  2  3  1  0
  3  4  1  0
  4  5  2  0
  4 26  1  0
  5  6  1  0
  6  7  1  0
  6 22  2  0
  7  8  1  0
  8  9  1  0
  9 10  1  0
 10 11  2  0
 10 20  1  0
 11 12  1  0
 12 13  2  0
 12 18  1  0
 13 14  1  0
 13 15  1  0
 15 16  2  0
 16 17  1  0
 17 18  2  0
 18 19  1  0
 19 20  1  0
 20 21  2  0
 22 23  1  0
 23 24  1  0
 23 26  2  0
 24 25  1  0
M  END
