
     RDKit          3D

 26 27  0  0  0  0  0  0  0  0999 V2000
    4.7230    2.8720   -1.1880 C   0  0  0  0  0  0  0  0  0  0  0  0
    4.6150    1.4370   -0.8300 C   0  0  0  0  0  0  0  0  0  0  0  0
    3.3760    0.9060   -0.4410 C   0  0  0  0  0  0  0  0  0  0  0  0
    3.2240   -0.4090   -0.1010 C   0  0  0  0  0  0  0  0  0  0  0  0
    2.0350   -1.0600    0.2920 N   0  0  0  0  0  0  0  0  0  0  0  0
    0.7180   -0.4920    0.2470 C   0  0  0  0  0  0  0  0  0  0  0  0
    0.5600    0.6530   -0.1640 O   0  0  0  0  0  0  0  0  0  0  0  0
   -0.3870   -1.2720    0.6820 N   0  0  0  0  0  0  0  0  0  0  0  0
   -1.7310   -0.8470    0.6940 C   0  0  0  0  0  0  0  0  0  0  0  0
   -2.1420    0.3920    0.2800 C   0  0  0  0  0  0  0  0  0  0  0  0
   -3.4880    0.7990    0.2990 C   0  0  0  0  0  0  0  0  0  0  0  0
   -3.9650    2.3750   -0.2320 S   0  0  2  0  0  0  0  0  0  0  0  0
   -4.3260    2.3730   -1.9140 N   0  0  0  0  0  0  0  0  0  0  0  0
   -2.8890    3.3830    0.0190 O   0  0  0  0  0  0  0  0  0  0  0  0
   -5.1920    2.8420    0.5090 O   0  0  0  0  0  0  0  0  0  0  0  0
   -4.4330   -0.0830    0.7520 C   0  0  0  0  0  0  0  0  0  0  0  0
   -4.0370   -1.3200    1.1670 C   0  0  0  0  0  0  0  0  0  0  0  0
   -5.0090   -2.2580    1.6440 N   0  0  0  0  0  0  0  0  0  0  0  0
   -6.1800   -2.2080    1.2490 O   0  0  0  0  0  0  0  0  0  0  0  0
   -4.6270   -3.2280    2.5550 O   0  0  0  0  0  0  0  0  0  0  0  0
   -2.7050   -1.7380    1.1530 C   0  0  0  0  0  0  0  0  0  0  0  0
   -2.4080   -3.0120    1.5940 O   0  0  0  0  0  0  0  0  0  0  0  0
    4.3930   -1.1800   -0.1720 C   0  0  0  0  0  0  0  0  0  0  0  0
    5.6090   -0.6670   -0.5520 C   0  0  0  0  0  0  0  0  0  0  0  0
    5.7420    0.6580   -0.8900 C   0  0  0  0  0  0  0  0  0  0  0  0
    6.9430    1.1920   -1.2710 F   0  0  0  0  0  0  0  0  0  0  0  0
  1  2  1  0
  2  3  2  0
  2 25  1  0
  3  4  1  0
  4  5  1  0
  4 23  2  0
  5  6  1  0
  6  7  2  0
  6  8  1  0
  8  9  1  0
  9 10  2  0
  9 21  1  0
 10 11  1  0
 11 12  1  0
 11 16  2  0
 12 13  1  6
 12 14  2  0
 12 15  2  0
 16 17  1  0
 17 18  1  0
 17 21  2  0
 18 19  2  0
 18 20  1  0
 21 22  1  0
 23 24  1  0
 24 25  2  0
 25 26  1  0
M  CHG  2  18   1  20  -1
M  END
