
     RDKit          3D

  9  8  0  0  0  0  0  0  0  0999 V2000
   -2.5640   -0.6640    0.5310 C   0  0  0  0  0  0  0  0  0  0  0  0
   -1.1160   -0.4810    0.7480 C   0  0  0  0  0  0  0  0  0  0  0  0
   -0.4910   -0.7000    2.3930 S   0  0  0  0  0  0  0  0  0  0  0  0
   -0.3330   -0.1670   -0.2410 C   0  0  0  0  0  0  0  0  0  0  0  0
   -0.9970   -0.0070   -1.5970 C   0  0  0  0  0  0  0  0  0  0  0  0
    1.1200    0.0600   -0.2370 C   0  0  1  0  0  0  0  0  0  0  0  0
    1.4300    1.4930   -0.6880 C   0  0  0  0  0  0  0  0  0  0  0  0
    1.8580   -0.2470    1.0020 C   0  0  0  0  0  0  0  0  0  0  0  0
    1.6360   -0.7360   -1.2920 O   0  0  0  0  0  0  0  0  0  0  0  0
  1  2  1  0
  2  3  1  0
  2  4  2  3
  4  5  1  0
  4  6  1  0
  6  7  1  6
  6  8  1  0
  6  9  1  0
M  END
