
     RDKit          3D

  9  8  0  0  0  0  0  0  0  0999 V2000
    3.2070    0.5390    0.2000 C   0  0  0  0  0  0  0  0  0  0  0  0
    1.8970    0.1940    0.2460 C   0  0  0  0  0  0  0  0  0  0  0  0
    1.5410   -0.5480    1.3350 O   0  0  0  0  0  0  0  0  0  0  0  0
    1.0270    0.6100   -0.8050 C   0  0  0  0  0  0  0  0  0  0  0  0
   -0.2300    0.4790   -1.0690 C   0  0  0  0  0  0  0  0  0  0  0  0
   -1.3730   -0.1110   -0.4890 C   0  0  0  0  0  0  0  0  0  0  0  0
   -2.5470   -0.0340   -1.1840 C   0  0  0  0  0  0  0  0  0  0  0  0
   -1.4640   -0.7920    0.7890 C   0  0  0  0  0  0  0  0  0  0  0  0
   -1.1370   -0.0160    1.9000 O   0  0  0  0  0  0  0  0  0  0  0  0
  1  2  2  0
  2  3  1  0
  2  4  1  0
  4  5  2  3
  5  6  1  0
  6  7  2  0
  6  8  1  0
  8  9  1  0
M  END
