
     RDKit          3D

 19 21  0  0  0  0  0  0  0  0999 V2000
   -0.4780   -3.8330   -1.7320 N   0  0  0  0  0  0  0  0  0  0  0  0
   -0.1210   -2.5540   -1.2380 C   0  0  0  0  0  0  0  0  0  0  0  0
    1.1400   -2.1030   -1.1680 N   0  0  0  0  0  0  0  0  0  0  0  0
    1.4440   -0.8860   -0.6950 C   0  0  0  0  0  0  0  0  0  0  0  0
    2.7800   -0.4040   -0.6180 N   0  0  0  0  0  0  0  0  0  0  0  0
    3.1300    0.8920   -0.1200 C   0  0  2  0  0  0  0  0  0  0  0  0
    4.5850    1.2250   -0.1050 C   0  0  0  0  0  0  0  0  0  0  0  0
    3.8850    1.0340    1.1720 C   0  0  0  0  0  0  0  0  0  0  0  0
    0.3860   -0.0660   -0.2610 C   0  0  0  0  0  0  0  0  0  0  0  0
   -0.8960   -0.4900   -0.3190 C   0  0  0  0  0  0  0  0  0  0  0  0
   -2.0910    0.2260    0.1210 C   0  0  0  0  0  0  0  0  0  0  0  0
   -3.2800   -0.4990    0.2960 C   0  0  0  0  0  0  0  0  0  0  0  0
   -4.4690    0.0620    0.6790 C   0  0  0  0  0  0  0  0  0  0  0  0
   -4.5320    1.4150    0.9140 C   0  0  0  0  0  0  0  0  0  0  0  0
   -3.3700    2.1450    0.7470 C   0  0  0  0  0  0  0  0  0  0  0  0
   -3.4480    3.8550    1.0440 Cl  0  0  0  0  0  0  0  0  0  0  0  0
   -2.1700    1.5730    0.3580 C   0  0  0  0  0  0  0  0  0  0  0  0
   -0.8150    2.6460    0.1520 Cl  0  0  0  0  0  0  0  0  0  0  0  0
   -1.0890   -1.7420   -0.8160 N   0  0  0  0  0  0  0  0  0  0  0  0
  1  2  1  0
  2  3  2  0
  2 19  1  0
  3  4  1  0
  4  5  1  0
  4  9  2  0
  6  5  1  6
  6  7  1  0
  6  8  1  0
  7  8  1  0
  9 10  1  0
 10 11  1  0
 10 19  2  0
 11 12  2  0
 11 17  1  0
 12 13  1  0
 13 14  2  0
 14 15  1  0
 15 16  1  0
 15 17  2  0
 17 18  1  0
M  END
