
     RDKit          3D

 31 35  0  0  0  0  0  0  0  0999 V2000
   -6.4740   -0.4690   -1.5760 C   0  0  0  0  0  0  0  0  0  0  0  0
   -5.9000    0.5060   -0.6460 N   0  0  0  0  0  0  0  0  0  0  0  0
   -4.5790    0.0720   -0.2090 C   0  0  0  0  0  0  0  0  0  0  0  0
   -3.9760    0.9860    0.7510 C   0  0  0  0  0  0  0  0  0  0  0  0
   -4.6920    2.1230    1.1090 C   0  0  0  0  0  0  0  0  0  0  0  0
   -4.1880    3.0510    1.9890 C   0  0  0  0  0  0  0  0  0  0  0  0
   -2.9420    2.8580    2.5350 C   0  0  0  0  0  0  0  0  0  0  0  0
   -2.2250    1.7330    2.1870 C   0  0  0  0  0  0  0  0  0  0  0  0
   -2.7420    0.7850    1.2880 C   0  0  0  0  0  0  0  0  0  0  0  0
   -1.9490   -0.3860    0.9850 C   0  0  0  0  0  0  0  0  0  0  0  0
   -2.3630   -1.6690    1.2130 C   0  0  0  0  0  0  0  0  0  0  0  0
   -1.5560   -2.7200    0.8730 C   0  0  0  0  0  0  0  0  0  0  0  0
   -0.3320   -2.5470    0.3050 C   0  0  0  0  0  0  0  0  0  0  0  0
    0.4670   -3.5880   -0.0230 N   0  0  0  0  0  0  0  0  0  0  0  0
    1.6650   -3.4430   -0.5710 C   0  0  0  0  0  0  0  0  0  0  0  0
    2.4850   -4.5760   -0.9060 N   0  0  0  0  0  0  0  0  0  0  0  0
    2.0990   -2.2010   -0.8070 N   0  0  0  0  0  0  0  0  0  0  0  0
    1.3680   -1.0930   -0.5120 C   0  0  0  0  0  0  0  0  0  0  0  0
    1.9330    0.2070   -0.8050 C   0  0  0  0  0  0  0  0  0  0  0  0
    1.2310    1.1180   -1.2720 O   0  0  0  0  0  0  0  0  0  0  0  0
    3.3100    0.4570   -0.5610 N   0  0  0  0  0  0  0  0  0  0  0  0
    3.9840    1.6250   -0.7860 C   0  0  0  0  0  0  0  0  0  0  0  0
    5.2930    1.5020   -0.4350 C   0  0  0  0  0  0  0  0  0  0  0  0
    6.3340    2.4120   -0.4880 C   0  0  0  0  0  0  0  0  0  0  0  0
    7.5780    2.0370   -0.0690 C   0  0  0  0  0  0  0  0  0  0  0  0
    7.7680    0.7540    0.3990 C   0  0  0  0  0  0  0  0  0  0  0  0
    6.7170   -0.1540    0.4490 C   0  0  0  0  0  0  0  0  0  0  0  0
    5.4550    0.2110    0.0290 C   0  0  0  0  0  0  0  0  0  0  0  0
    4.2250   -0.3830   -0.0670 C   0  0  0  0  0  0  0  0  0  0  0  0
    0.1200   -1.2710    0.0610 C   0  0  0  0  0  0  0  0  0  0  0  0
   -0.6890   -0.2160    0.4020 C   0  0  0  0  0  0  0  0  0  0  0  0
  1  2  1  0
  2  3  1  0
  3  4  1  0
  4  5  2  0
  4  9  1  0
  5  6  1  0
  6  7  2  0
  7  8  1  0
  8  9  2  0
  9 10  1  0
 10 11  2  0
 10 31  1  0
 11 12  1  0
 12 13  2  0
 13 14  1  0
 13 30  1  0
 14 15  2  0
 15 16  1  0
 15 17  1  0
 17 18  2  0
 18 19  1  0
 18 30  1  0
 19 20  2  0
 19 21  1  0
 21 22  1  0
 21 29  1  0
 22 23  2  0
 23 24  1  0
 23 28  1  0
 24 25  2  0
 25 26  1  0
 26 27  2  0
 27 28  1  0
 28 29  2  0
 30 31  2  0
M  CHG  1   2   1
M  END
