
     RDKit          3D

 31 34  0  0  0  0  0  0  0  0999 V2000
   -1.3380    4.3520    1.7930 C   0  0  0  0  0  0  0  0  0  0  0  0
   -2.2290    3.4280    1.5740 N   0  0  0  0  0  0  0  0  0  0  0  0
   -2.7800    3.2240    0.2710 C   0  0  0  0  0  0  0  0  0  0  0  0
   -4.0390    3.4790    0.0270 C   0  0  0  0  0  0  0  0  0  0  0  0
   -1.9040    2.7170   -0.8080 C   0  0  0  0  0  0  0  0  0  0  0  0
   -1.3310    1.5050   -0.5790 O   0  0  0  0  0  0  0  0  0  0  0  0
   -1.7730    0.2430   -0.3700 C   0  0  0  0  0  0  0  0  0  0  0  0
   -3.1500   -0.0430   -0.3700 C   0  0  0  0  0  0  0  0  0  0  0  0
   -3.6600   -1.2990   -0.1650 C   0  0  0  0  0  0  0  0  0  0  0  0
   -2.7520   -2.3220    0.0500 C   0  0  0  0  0  0  0  0  0  0  0  0
   -1.3990   -2.0970    0.0600 C   0  0  0  0  0  0  0  0  0  0  0  0
   -0.9020   -0.8130   -0.1500 C   0  0  0  0  0  0  0  0  0  0  0  0
    0.5240   -0.6280   -0.1300 C   0  0  0  0  0  0  0  0  0  0  0  0
    1.2430   -1.6820    0.0830 O   0  0  0  0  0  0  0  0  0  0  0  0
    1.2670    0.5430   -0.3100 N   0  0  0  0  0  0  0  0  0  0  0  0
    2.6940    0.6510   -0.2860 C   0  0  0  0  0  0  0  0  0  0  0  0
    3.2690    1.9190   -0.0790 C   0  0  0  0  0  0  0  0  0  0  0  0
    4.6330    2.1010   -0.0680 C   0  0  0  0  0  0  0  0  0  0  0  0
    5.4410    1.0050   -0.2660 C   0  0  0  0  0  0  0  0  0  0  0  0
    4.9410   -0.2540   -0.4730 C   0  0  0  0  0  0  0  0  0  0  0  0
    3.5450   -0.3930   -0.4770 C   0  0  0  0  0  0  0  0  0  0  0  0
    5.7850   -1.3910   -0.6850 N   0  0  0  0  0  0  0  0  0  0  0  0
    7.2000   -1.3330   -0.7040 C   0  0  0  0  0  0  0  0  0  0  0  0
    7.8610   -2.1610   -1.4240 O   0  0  0  0  0  0  0  0  0  0  0  0
    7.9770   -0.3480    0.0800 C   0  0  0  0  0  0  0  0  0  0  0  0
    7.2100    1.2950   -0.2310 S   0  0  0  0  0  0  0  0  0  0  0  0
   -3.1040   -3.6450    0.2730 O   0  0  0  0  0  0  0  0  0  0  0  0
   -4.2490   -4.1180    0.9090 C   0  0  0  0  0  0  0  0  0  0  0  0
   -5.5320   -3.7990    0.2280 C   0  0  0  0  0  0  0  0  0  0  0  0
   -5.7920   -2.4000   -0.0400 C   0  0  0  0  0  0  0  0  0  0  0  0
   -5.0860   -1.3350   -0.2110 N   0  0  0  0  0  0  0  0  0  0  0  0
  1  2  2  0
  2  3  1  0
  3  4  2  0
  3  5  1  0
  5  6  1  0
  6  7  1  0
  7  8  2  0
  7 12  1  0
  8  9  1  0
  9 10  2  0
  9 31  1  0
 10 11  1  0
 10 27  1  0
 11 12  2  0
 12 13  1  0
 13 14  2  0
 13 15  1  0
 15 16  1  0
 16 17  2  0
 16 21  1  0
 17 18  1  0
 18 19  2  0
 19 20  1  0
 19 26  1  0
 20 21  2  0
 20 22  1  0
 22 23  1  0
 23 24  2  0
 23 25  1  0
 25 26  1  0
 27 28  1  0
 28 29  1  0
 29 30  1  0
 30 31  2  0
M  END
