
     RDKit          3D

 31 34  0  0  0  0  0  0  0  0999 V2000
   10.8890    0.2200    1.6180 C   0  0  0  0  0  0  0  0  0  0  0  0
    9.6380    0.9990    1.3870 C   0  0  0  0  0  0  0  0  0  0  0  0
    8.5760    0.1880    0.8230 N   0  0  0  0  0  0  0  0  0  0  0  0
    7.3040    0.6720    0.5100 C   0  0  0  0  0  0  0  0  0  0  0  0
    7.0150    1.8580    0.7080 O   0  0  0  0  0  0  0  0  0  0  0  0
    6.2480   -0.1850   -0.0640 C   0  0  0  0  0  0  0  0  0  0  0  0
    6.2980   -1.5430   -0.3860 C   0  0  0  0  0  0  0  0  0  0  0  0
    5.2540   -2.0380   -0.8650 O   0  0  0  0  0  0  0  0  0  0  0  0
    4.2070   -1.5390   -1.0970 C   0  0  0  0  0  0  0  0  0  0  0  0
    3.0290   -1.7690   -1.5560 N   0  0  0  0  0  0  0  0  0  0  0  0
    2.0210   -0.7690   -1.6490 C   0  0  0  0  0  0  0  0  0  0  0  0
    2.3050    0.4540   -2.2410 C   0  0  0  0  0  0  0  0  0  0  0  0
    1.3610    1.4450   -2.3510 C   0  0  0  0  0  0  0  0  0  0  0  0
    0.0640    1.2300   -1.8540 C   0  0  0  0  0  0  0  0  0  0  0  0
   -0.2540    0.0420   -1.2660 C   0  0  0  0  0  0  0  0  0  0  0  0
   -1.5330   -0.2360   -0.7700 N   0  0  0  0  0  0  0  0  0  0  0  0
   -2.6810    0.5170   -1.0790 C   0  0  0  0  0  0  0  0  0  0  0  0
   -2.6770    1.5100   -1.8370 O   0  0  0  0  0  0  0  0  0  0  0  0
   -3.9970    0.1510   -0.4990 C   0  0  0  0  0  0  0  0  0  0  0  0
   -5.1680    0.8000   -0.7240 C   0  0  0  0  0  0  0  0  0  0  0  0
   -6.1660    0.1540   -0.0040 C   0  0  0  0  0  0  0  0  0  0  0  0
   -7.5230    0.3590    0.1520 C   0  0  0  0  0  0  0  0  0  0  0  0
   -8.2780   -0.4670    0.9540 C   0  0  0  0  0  0  0  0  0  0  0  0
   -9.6840   -0.2740    1.1290 N   0  0  0  0  0  0  0  0  0  0  0  0
  -10.3850    0.7900    0.4800 C   0  0  0  0  0  0  0  0  0  0  0  0
   -7.6130   -1.4960    1.5850 C   0  0  0  0  0  0  0  0  0  0  0  0
   -6.2670   -1.7230    1.4490 C   0  0  0  0  0  0  0  0  0  0  0  0
   -5.5190   -0.8810    0.6360 C   0  0  0  0  0  0  0  0  0  0  0  0
   -4.2260   -0.8560    0.3200 O   0  0  0  0  0  0  0  0  0  0  0  0
    0.7520   -0.9320   -1.1820 C   0  0  0  0  0  0  0  0  0  0  0  0
    4.6260    0.2210   -0.5150 S   0  0  0  0  0  0  0  0  0  0  0  0
  1  2  1  0
  2  3  1  0
  3  4  1  0
  4  5  2  0
  4  6  1  0
  6  7  2  0
  6 31  1  0
  7  8  1  0
  8  9  1  0
  9 10  2  3
  9 31  1  0
 10 11  1  0
 11 12  2  0
 11 30  1  0
 12 13  1  0
 13 14  2  0
 14 15  1  0
 15 16  1  0
 15 30  2  0
 16 17  1  0
 17 18  2  0
 17 19  1  0
 19 20  2  0
 19 29  1  0
 20 21  1  0
 21 22  2  0
 21 28  1  0
 22 23  1  0
 23 24  1  0
 23 26  2  0
 24 25  1  0
 26 27  1  0
 27 28  2  0
 28 29  1  0
M  END
