
     RDKit          3D

 30 33  0  0  0  0  0  0  0  0999 V2000
    1.5170   -1.9590    2.0970 O   0  0  0  0  0  0  0  0  0  0  0  0
    0.6700   -1.5590    1.2100 C   0  0  0  0  0  0  0  0  0  0  0  0
   -0.1820   -0.5350    1.6310 N   0  0  0  0  0  0  0  0  0  0  0  0
   -1.6350   -0.4820    1.2640 C   0  0  0  0  0  0  0  0  0  0  0  0
   -1.6570    0.8060    0.4500 C   0  0  2  0  0  0  0  0  0  0  0  0
   -1.6910    1.8280    1.3320 O   0  0  0  0  0  0  0  0  0  0  0  0
   -2.8520    0.9530   -0.4740 C   0  0  0  0  0  0  0  0  0  0  0  0
   -4.0340    0.3850   -0.2710 C   0  0  0  0  0  0  0  0  0  0  0  0
   -5.0190    0.5550   -1.1070 C   0  0  0  0  0  0  0  0  0  0  0  0
   -4.3080    1.6400   -2.3920 S   0  0  0  0  0  0  0  0  0  0  0  0
   -2.6370    1.7040   -1.5230 C   0  0  0  0  0  0  0  0  0  0  0  0
   -1.5050    2.4630   -2.0370 C   0  0  0  0  0  0  0  0  0  0  0  0
   -0.3290    2.8440   -1.6630 C   0  0  0  0  0  0  0  0  0  0  0  0
    0.5420    2.7380   -0.5320 C   0  0  0  0  0  0  0  0  0  0  0  0
    1.4990    1.8170   -0.2230 C   0  0  0  0  0  0  0  0  0  0  0  0
    2.2150    2.0050    1.0410 C   0  0  0  0  0  0  0  0  0  0  0  0
    3.2190    1.2640    1.5810 C   0  0  0  0  0  0  0  0  0  0  0  0
    3.5850    1.8180    2.7870 C   0  0  0  0  0  0  0  0  0  0  0  0
    2.7460    2.9210    2.9290 C   0  0  0  0  0  0  0  0  0  0  0  0
    1.9890    2.9600    1.8850 O   0  0  0  0  0  0  0  0  0  0  0  0
    1.9160    0.7060   -1.0260 N   0  0  0  0  0  0  0  0  0  0  0  0
    1.3200   -0.3660   -1.6770 C   0  0  0  0  0  0  0  0  0  0  0  0
    0.9390   -0.1090   -2.9000 O   0  0  0  0  0  0  0  0  0  0  0  0
    1.0090   -1.7740   -1.3100 C   0  0  0  0  0  0  0  0  0  0  0  0
    1.0260   -2.7070   -2.3790 C   0  0  0  0  0  0  0  0  0  0  0  0
    0.8430   -4.0460   -2.2460 C   0  0  0  0  0  0  0  0  0  0  0  0
    0.8670   -4.9290   -3.3220 O   0  0  0  0  0  0  0  0  0  0  0  0
    0.6220   -4.5720   -0.9980 C   0  0  0  0  0  0  0  0  0  0  0  0
    0.6000   -3.6920    0.0420 C   0  0  0  0  0  0  0  0  0  0  0  0
    0.7860   -2.2870   -0.0700 C   0  0  0  0  0  0  0  0  0  0  0  0
  1  2  2  0
  2  3  1  0
  2 30  1  0
  3  4  1  0
  4  5  1  0
  5  6  1  1
  5  7  1  0
  7  8  1  0
  7 11  2  0
  8  9  2  0
  9 10  1  0
 10 11  1  0
 11 12  1  0
 12 13  2  0
 13 14  1  0
 14 15  2  0
 15 16  1  0
 15 21  1  0
 16 17  2  0
 16 20  1  0
 17 18  1  0
 18 19  2  0
 19 20  1  0
 21 22  1  0
 22 23  2  0
 22 24  1  0
 24 25  2  0
 24 30  1  0
 25 26  1  0
 26 27  1  0
 26 28  2  0
 28 29  1  0
 29 30  2  0
M  END
