
     RDKit          3D

 23 24  0  0  0  0  0  0  0  0999 V2000
    3.0030   -0.5750    0.5400 O   0  0  0  0  0  0  0  0  0  0  0  0
    2.8970    0.7090    0.4370 C   0  0  0  0  0  0  0  0  0  0  0  0
    1.6630    1.3420    0.5180 N   0  0  0  0  0  0  0  0  0  0  0  0
    0.4440    0.7410    0.6790 N   0  0  0  0  0  0  0  0  0  0  0  0
   -0.1400    0.2090   -0.5150 C   0  0  0  0  0  0  0  0  0  0  0  0
    0.3880    0.1990   -1.6330 O   0  0  0  0  0  0  0  0  0  0  0  0
   -1.4980   -0.3330   -0.3360 C   0  0  0  0  0  0  0  0  0  0  0  0
   -1.8120   -1.4620    0.2760 C   0  0  0  0  0  0  0  0  0  0  0  0
   -3.1640   -1.7530    0.4680 C   0  0  0  0  0  0  0  0  0  0  0  0
   -4.0880   -0.8470    0.0070 C   0  0  0  0  0  0  0  0  0  0  0  0
   -5.5530   -1.1950    0.0170 C   0  0  0  0  0  0  0  0  0  0  0  0
   -6.0660   -1.2400    1.2580 O   0  0  0  0  0  0  0  0  0  0  0  0
   -3.7810    0.3230   -0.6280 C   0  0  0  0  0  0  0  0  0  0  0  0
   -4.7710    1.2460   -0.9750 N   0  0  0  0  0  0  0  0  0  0  0  0
   -5.8410    1.2300   -0.2490 O   0  0  0  0  0  0  0  0  0  0  0  0
   -4.6720    2.1210   -1.9870 O   0  0  0  0  0  0  0  0  0  0  0  0
   -2.4720    0.6000   -0.8190 C   0  0  0  0  0  0  0  0  0  0  0  0
    4.1130    1.4310    0.2290 N   0  0  0  0  0  0  0  0  0  0  0  0
    5.3440    0.6020    0.1970 C   0  0  0  0  0  0  0  0  0  0  0  0
    6.0550    0.5320    1.3560 C   0  0  0  0  0  0  0  0  0  0  0  0
    7.1300   -0.2520    1.3840 C   0  0  0  0  0  0  0  0  0  0  0  0
    7.2320   -0.9630   -0.2920 S   0  0  0  0  0  0  0  0  0  0  0  0
    5.6880   -0.0610   -0.8600 C   0  0  0  0  0  0  0  0  0  0  0  0
  1  2  2  0
  2  3  1  0
  2 18  1  0
  3  4  1  0
  4  5  1  0
  5  6  2  0
  5  7  1  0
  7  8  2  0
  7 17  1  0
  8  9  1  0
  9 10  2  0
 10 11  1  0
 10 13  1  0
 11 12  1  0
 13 14  1  0
 13 17  2  0
 14 15  2  0
 14 16  1  0
 18 19  1  0
 19 20  1  0
 19 23  2  0
 20 21  2  0
 21 22  1  0
 22 23  1  0
M  CHG  2  14   1  16  -1
M  END
