
     RDKit          3D

 13 14  0  0  0  0  0  0  0  0999 V2000
   -3.7500   -1.1990   -0.4970 C   0  0  0  0  0  0  0  0  0  0  0  0
   -2.4690   -0.5070   -0.1860 C   0  0  0  0  0  0  0  0  0  0  0  0
   -2.4090    0.7220    0.4240 C   0  0  0  0  0  0  0  0  0  0  0  0
   -1.0350    0.9960    0.5250 C   0  0  0  0  0  0  0  0  0  0  0  0
   -0.5650    2.2050    1.1140 N   0  0  0  0  0  0  0  0  0  0  0  0
   -0.3290    0.0060    0.0140 N   0  0  0  0  0  0  0  0  0  0  0  0
    1.0920   -0.1280   -0.0890 C   0  0  0  0  0  0  0  0  0  0  0  0
    1.6020   -1.2180   -0.6440 C   0  0  0  0  0  0  0  0  0  0  0  0
    3.0570   -1.3820   -0.7620 C   0  0  0  0  0  0  0  0  0  0  0  0
    3.8240   -0.3370   -0.2630 O   0  0  0  0  0  0  0  0  0  0  0  0
    3.3240    0.8080    0.3190 C   0  0  0  0  0  0  0  0  0  0  0  0
    1.9860    0.8950    0.3970 C   0  0  0  0  0  0  0  0  0  0  0  0
   -1.2180   -0.9020   -0.4140 N   0  0  0  0  0  0  0  0  0  0  0  0
  1  2  1  0
  2  3  1  0
  2 13  2  0
  3  4  2  0
  4  5  1  0
  4  6  1  0
  6  7  1  0
  6 13  1  0
  7  8  2  0
  7 12  1  0
  8  9  1  0
  9 10  1  0
 10 11  1  0
 11 12  2  0
M  END
