
     RDKit          3D

 13 14  0  0  0  0  0  0  0  0999 V2000
    4.3980    0.9000   -0.1670 N   0  0  0  0  0  0  0  0  0  0  0  0
    2.9890    0.8250   -0.1540 C   0  0  0  0  0  0  0  0  0  0  0  0
    2.2720    1.8400   -0.3520 O   0  0  0  0  0  0  0  0  0  0  0  0
    2.3940   -0.4650    0.0960 N   0  0  0  0  0  0  0  0  0  0  0  0
    0.9710   -0.5360    0.1080 C   0  0  0  0  0  0  0  0  0  0  0  0
    0.3860   -1.7580    0.3440 C   0  0  0  0  0  0  0  0  0  0  0  0
   -0.9900   -1.8200    0.3540 C   0  0  0  0  0  0  0  0  0  0  0  0
   -1.7520   -0.6840    0.1320 C   0  0  0  0  0  0  0  0  0  0  0  0
   -1.1520    0.5230   -0.1010 C   0  0  0  0  0  0  0  0  0  0  0  0
    0.2080    0.5500   -0.1050 N   0  0  0  0  0  0  0  0  0  0  0  0
   -2.0320    1.4960   -0.2920 C   0  0  0  0  0  0  0  0  0  0  0  0
   -3.3770    0.8990   -0.1780 C   0  0  0  0  0  0  0  0  0  0  0  0
   -3.0790   -0.5150    0.0970 C   0  0  0  0  0  0  0  0  0  0  0  0
  1  2  1  0
  2  3  2  0
  2  4  1  0
  4  5  1  0
  5  6  1  0
  5 10  2  0
  6  7  2  0
  7  8  1  0
  8  9  1  0
  8 13  2  0
  9 10  1  0
  9 11  2  0
 11 12  1  0
 12 13  1  0
M  END
