
     RDKit          3D

 12 13  0  0  0  0  0  0  0  0999 V2000
    3.4090   -0.5450    0.2490 N   0  0  0  0  0  0  0  0  0  0  0  0
    2.0460   -0.1450    0.2260 C   0  0  0  0  0  0  0  0  0  0  0  0
    1.6720    1.1140    0.6980 C   0  0  0  0  0  0  0  0  0  0  0  0
    0.3760    1.5350    0.6920 C   0  0  0  0  0  0  0  0  0  0  0  0
   -0.6100    0.6910    0.2030 C   0  0  0  0  0  0  0  0  0  0  0  0
   -1.8950    1.0800    0.1860 N   0  0  0  0  0  0  0  0  0  0  0  0
   -2.9010    0.3190   -0.2720 C   0  0  0  0  0  0  0  0  0  0  0  0
   -4.1050    0.6870   -0.2860 O   0  0  0  0  0  0  0  0  0  0  0  0
   -2.5940   -0.9460   -0.7560 C   0  0  0  0  0  0  0  0  0  0  0  0
   -1.2780   -1.3660   -0.7470 C   0  0  0  0  0  0  0  0  0  0  0  0
   -0.2560   -0.5690   -0.2720 C   0  0  0  0  0  0  0  0  0  0  0  0
    1.0660   -0.9660   -0.2530 C   0  0  0  0  0  0  0  0  0  0  0  0
  1  2  1  0
  2  3  2  0
  2 12  1  0
  3  4  1  0
  4  5  2  0
  5  6  1  0
  5 11  1  0
  6  7  1  0
  7  8  2  0
  7  9  1  0
  9 10  2  0
 10 11  1  0
 11 12  2  0
M  END
