
     RDKit          3D

 32 36  0  0  0  0  0  0  0  0999 V2000
    1.2330    1.4220    1.6250 O   0  0  0  0  0  0  0  0  0  0  0  0
    0.6580    1.7340    0.5820 C   0  0  0  0  0  0  0  0  0  0  0  0
    1.3410    2.4650   -0.4190 N   0  0  0  0  0  0  0  0  0  0  0  0
    2.6890    2.9120   -0.4240 C   0  0  0  0  0  0  0  0  0  0  0  0
    3.8070    1.9670   -0.4990 C   0  0  0  0  0  0  0  0  0  0  0  0
    3.8990    0.9460    0.5830 C   0  0  0  0  0  0  0  0  0  0  0  0
    5.1590    0.1010    0.3760 C   0  0  0  0  0  0  0  0  0  0  0  0
    5.2730   -1.0530   -0.3530 C   0  0  0  0  0  0  0  0  0  0  0  0
    6.5730   -1.4970   -0.2840 C   0  0  0  0  0  0  0  0  0  0  0  0
    7.2530   -2.5900   -0.8140 C   0  0  0  0  0  0  0  0  0  0  0  0
    8.5830   -2.7790   -0.5690 C   0  0  0  0  0  0  0  0  0  0  0  0
    9.2340   -1.8490    0.2250 C   0  0  0  0  0  0  0  0  0  0  0  0
    8.5910   -0.7620    0.7620 C   0  0  0  0  0  0  0  0  0  0  0  0
    7.2280   -0.5770    0.5050 C   0  0  0  0  0  0  0  0  0  0  0  0
    6.3650    0.3750    0.8920 N   0  0  0  0  0  0  0  0  0  0  0  0
   -0.7590    1.3290    0.3960 C   0  0  0  0  0  0  0  0  0  0  0  0
   -1.4960    1.5660   -0.6110 N   0  0  0  0  0  0  0  0  0  0  0  0
   -2.7770    1.0740   -0.5220 N   0  0  0  0  0  0  0  0  0  0  0  0
   -3.8500    1.1480   -1.4730 C   0  0  0  0  0  0  0  0  0  0  0  0
   -3.6020    1.7470   -2.5500 O   0  0  0  0  0  0  0  0  0  0  0  0
   -5.1700    0.5750   -1.2420 C   0  0  1  0  0  0  0  0  0  0  0  0
   -5.5940   -0.4150   -2.3010 C   0  0  0  0  0  0  0  0  0  0  0  0
   -6.9920   -0.6520   -2.0800 O   0  0  0  0  0  0  0  0  0  0  0  0
   -7.3620   -1.0060   -0.7740 C   0  0  0  0  0  0  0  0  0  0  0  0
   -8.5840   -1.6500   -0.5490 C   0  0  0  0  0  0  0  0  0  0  0  0
   -8.9290   -1.9890    0.7430 C   0  0  0  0  0  0  0  0  0  0  0  0
   -8.0960   -1.7060    1.8120 C   0  0  0  0  0  0  0  0  0  0  0  0
   -6.9030   -1.0700    1.5360 C   0  0  0  0  0  0  0  0  0  0  0  0
   -6.5070   -0.7080    0.2670 C   0  0  0  0  0  0  0  0  0  0  0  0
   -5.2980   -0.0660    0.0130 O   0  0  0  0  0  0  0  0  0  0  0  0
   -2.9160    0.4210    0.7500 C   0  0  0  0  0  0  0  0  0  0  0  0
   -1.5670    0.5660    1.3710 C   0  0  0  0  0  0  0  0  0  0  0  0
  1  2  2  0
  2  3  1  0
  2 16  1  0
  3  4  1  0
  4  5  1  0
  5  6  1  0
  6  7  1  0
  7  8  2  0
  7 15  1  0
  8  9  1  0
  9 10  2  0
  9 14  1  0
 10 11  1  0
 11 12  2  0
 12 13  1  0
 13 14  2  0
 14 15  1  0
 16 17  2  0
 16 32  1  0
 17 18  1  0
 18 19  1  0
 18 31  1  0
 19 20  2  0
 21 19  1  6
 21 22  1  0
 21 30  1  0
 22 23  1  0
 23 24  1  0
 24 25  2  0
 24 29  1  0
 25 26  1  0
 26 27  2  0
 27 28  1  0
 28 29  2  0
 29 30  1  0
 31 32  1  0
M  END
