
     RDKit          3D

 33 38  0  0  0  0  0  0  0  0999 V2000
  -10.0400   -1.1250    1.3030 C   0  0  0  0  0  0  0  0  0  0  0  0
   -9.2340   -0.2180    0.4830 N   0  0  0  0  0  0  0  0  0  0  0  0
   -9.6720    0.7850   -0.2940 C   0  0  0  0  0  0  0  0  0  0  0  0
   -8.5920    1.3790   -0.8850 C   0  0  0  0  0  0  0  0  0  0  0  0
   -7.4710    0.6970   -0.4380 C   0  0  0  0  0  0  0  0  0  0  0  0
   -6.1120    0.8710   -0.7130 C   0  0  0  0  0  0  0  0  0  0  0  0
   -5.1560    0.0610   -0.1450 C   0  0  0  0  0  0  0  0  0  0  0  0
   -3.7460    0.2580   -0.4440 C   0  0  0  0  0  0  0  0  0  0  0  0
   -2.8790   -0.4900    0.0820 N   0  0  0  0  0  0  0  0  0  0  0  0
   -1.4920   -0.3730   -0.1490 N   0  0  0  0  0  0  0  0  0  0  0  0
   -0.5870   -1.4550   -0.2970 C   0  0  0  0  0  0  0  0  0  0  0  0
   -0.8570   -2.6710   -0.2490 O   0  0  0  0  0  0  0  0  0  0  0  0
    0.7780   -0.9320   -0.5250 C   0  0  0  0  0  0  0  0  0  0  0  0
    1.9970   -1.5420   -0.7270 C   0  0  0  0  0  0  0  0  0  0  0  0
    3.1380   -0.7690   -0.9180 C   0  0  0  0  0  0  0  0  0  0  0  0
    3.0950    0.6030   -0.9130 C   0  0  0  0  0  0  0  0  0  0  0  0
    4.2480    1.4140   -1.0780 N   0  0  0  0  0  0  0  0  0  0  0  0
    5.5740    1.0740   -0.7880 C   0  0  0  0  0  0  0  0  0  0  0  0
    6.6060    1.7360   -1.4640 C   0  0  0  0  0  0  0  0  0  0  0  0
    7.9190    1.4480   -1.1810 C   0  0  0  0  0  0  0  0  0  0  0  0
    8.2100    0.5110   -0.2350 C   0  0  0  0  0  0  0  0  0  0  0  0
    7.1830   -0.1490    0.4390 C   0  0  0  0  0  0  0  0  0  0  0  0
    5.8530    0.1290    0.1660 C   0  0  0  0  0  0  0  0  0  0  0  0
    7.7850   -1.1000    1.3950 C   0  0  0  0  0  0  0  0  0  0  0  0
    9.0570   -1.4020    0.7340 N   0  0  0  0  0  0  0  0  0  0  0  0
    9.4720   -0.0650    0.3380 C   0  0  0  0  0  0  0  0  0  0  0  0
    1.8380    1.1810   -0.7050 C   0  0  0  0  0  0  0  0  0  0  0  0
    0.6910    0.4430   -0.5130 C   0  0  0  0  0  0  0  0  0  0  0  0
   -0.7220    0.8110   -0.2790 C   0  0  0  0  0  0  0  0  0  0  0  0
   -1.1410    1.9780   -0.2120 O   0  0  0  0  0  0  0  0  0  0  0  0
   -5.5920   -0.9340    0.7100 C   0  0  0  0  0  0  0  0  0  0  0  0
   -6.9310   -1.0980    0.9760 C   0  0  0  0  0  0  0  0  0  0  0  0
   -7.9070   -0.2910    0.4120 C   0  0  0  0  0  0  0  0  0  0  0  0
  1  2  1  0
  2  3  1  0
  2 33  1  0
  3  4  2  0
  4  5  1  0
  5  6  2  0
  5 33  1  0
  6  7  1  0
  7  8  1  0
  7 31  2  0
  8  9  2  3
  9 10  1  0
 10 11  1  0
 10 29  1  0
 11 12  2  0
 11 13  1  0
 13 14  2  0
 13 28  1  0
 14 15  1  0
 15 16  2  0
 16 17  1  0
 16 27  1  0
 17 18  1  0
 18 19  2  0
 18 23  1  0
 19 20  1  0
 20 21  2  0
 21 22  1  0
 21 26  1  0
 22 23  2  0
 22 24  1  0
 24 25  1  0
 25 26  1  0
 27 28  2  0
 28 29  1  0
 29 30  2  0
 31 32  1  0
 32 33  2  0
M  END
