
     RDKit          3D

 30 33  0  0  0  0  0  0  0  0999 V2000
    0.2120   -3.3330   -0.6490 C   0  0  0  0  0  0  0  0  0  0  0  0
   -0.2500   -2.0770   -1.1380 O   0  0  0  0  0  0  0  0  0  0  0  0
   -1.2040   -1.6220   -0.2540 C   0  0  2  0  0  0  0  0  0  0  0  0
   -2.5210   -2.1640   -0.9770 C   0  0  0  0  0  0  0  0  0  0  0  0
   -3.6210   -1.4770   -0.5760 O   0  0  0  0  0  0  0  0  0  0  0  0
   -3.6510   -1.0750    0.7310 C   0  0  0  0  0  0  0  0  0  0  0  0
   -2.5780   -0.0130    0.8800 C   0  0  2  0  0  0  0  0  0  0  0  0
   -2.0770   -0.1460    2.1960 O   0  0  0  0  0  0  0  0  0  0  0  0
   -3.1130    1.3440    0.7910 C   0  0  0  0  0  0  0  0  0  0  0  0
   -4.4330    1.6780    1.0840 O   0  0  0  0  0  0  0  0  0  0  0  0
   -2.3260    2.3400    0.4140 C   0  0  0  0  0  0  0  0  0  0  0  0
   -0.9040    2.1210    0.0550 C   0  0  0  0  0  0  0  0  0  0  0  0
   -0.0930    3.2300   -0.0070 C   0  0  0  0  0  0  0  0  0  0  0  0
   -0.5150    4.6080   -0.1190 C   0  0  0  0  0  0  0  0  0  0  0  0
    0.3580    5.5320    0.0790 O   0  0  0  0  0  0  0  0  0  0  0  0
   -1.7720    4.9940   -0.4250 O   0  0  0  0  0  0  0  0  0  0  0  0
    1.2960    2.9720   -0.0130 C   0  0  0  0  0  0  0  0  0  0  0  0
    1.7810    1.7130    0.0370 C   0  0  0  0  0  0  0  0  0  0  0  0
    0.9220    0.6200    0.0920 C   0  0  0  0  0  0  0  0  0  0  0  0
    1.4360   -0.6530    0.1460 O   0  0  0  0  0  0  0  0  0  0  0  0
    2.7930   -0.8500    0.1430 C   0  0  0  0  0  0  0  0  0  0  0  0
    3.4670   -0.7850    1.2670 C   0  0  0  0  0  0  0  0  0  0  0  0
    4.9180   -0.9900    1.2980 C   0  0  0  0  0  0  0  0  0  0  0  0
    5.5090   -1.2520    0.0810 O   0  0  0  0  0  0  0  0  0  0  0  0
    4.8250   -1.3230   -1.0970 C   0  0  0  0  0  0  0  0  0  0  0  0
    3.4990   -1.1300   -1.0910 C   0  0  0  0  0  0  0  0  0  0  0  0
    2.8240   -1.2070   -2.3040 O   0  0  0  0  0  0  0  0  0  0  0  0
   -0.4240    0.8000    0.0960 C   0  0  0  0  0  0  0  0  0  0  0  0
   -1.4590   -0.2070   -0.0880 C   0  0  1  0  0  0  0  0  0  0  0  0
   -2.0580    0.1920   -1.3770 O   0  0  0  0  0  0  0  0  0  0  0  0
  1  2  1  0
  3  2  1  6
  3  4  1  0
  3 29  1  0
  4  5  1  0
  5  6  1  0
  6  7  1  0
  7  8  1  1
  7  9  1  0
  7 29  1  0
  9 10  1  0
  9 11  2  0
 11 12  1  0
 12 13  2  0
 12 28  1  0
 13 14  1  0
 13 17  1  0
 14 15  2  0
 14 16  1  0
 17 18  2  0
 18 19  1  0
 19 20  1  0
 19 28  2  0
 20 21  1  0
 21 22  2  0
 21 26  1  0
 22 23  1  0
 23 24  1  0
 24 25  1  0
 25 26  2  0
 26 27  1  0
 28 29  1  0
 29 30  1  6
M  END
