
     RDKit          3D

 30 32  0  0  0  0  0  0  0  0999 V2000
   -2.5180    2.6030   -1.7590 C   0  0  0  0  0  0  0  0  0  0  0  0
   -3.5030    2.0060   -0.8180 C   0  0  2  0  0  0  0  0  0  0  0  0
   -2.8710    1.1420    0.2550 C   0  0  0  0  0  0  0  0  0  0  0  0
   -2.7060   -0.2400   -0.2520 C   0  0  1  0  0  0  0  0  0  0  0  0
   -1.3360   -0.6630   -0.5930 C   0  0  0  0  0  0  0  0  0  0  0  0
   -0.2670   -0.6620    0.4100 C   0  0  2  0  0  0  0  0  0  0  0  0
    0.0210    0.6060    1.0020 O   0  0  0  0  0  0  0  0  0  0  0  0
    1.3730    0.6830    1.2630 C   0  0  0  0  0  0  0  0  0  0  0  0
    2.0730    1.4730    2.1790 C   0  0  0  0  0  0  0  0  0  0  0  0
    1.3790    2.3540    3.0040 O   0  0  0  0  0  0  0  0  0  0  0  0
    3.4340    1.3290    2.2120 C   0  0  0  0  0  0  0  0  0  0  0  0
    4.1620    2.0910    3.1030 O   0  0  0  0  0  0  0  0  0  0  0  0
    4.0750    0.4280    1.3590 C   0  0  0  0  0  0  0  0  0  0  0  0
    5.4550    0.3520    1.4650 O   0  0  0  0  0  0  0  0  0  0  0  0
    3.3620   -0.3370    0.4670 C   0  0  0  0  0  0  0  0  0  0  0  0
    3.9850   -1.2230   -0.3720 O   0  0  0  0  0  0  0  0  0  0  0  0
    4.4640   -0.9460   -1.6580 C   0  0  1  0  0  0  0  0  0  0  0  0
    5.5130    0.1440   -1.6290 C   0  0  0  0  0  0  0  0  0  0  0  0
    5.1790   -2.2160   -2.1390 C   0  0  0  0  0  0  0  0  0  0  0  0
    3.4710   -0.5810   -2.5550 O   0  0  0  0  0  0  0  0  0  0  0  0
    1.9860   -0.2100    0.4160 C   0  0  0  0  0  0  0  0  0  0  0  0
    0.9770   -0.8020   -0.3360 O   0  0  0  0  0  0  0  0  0  0  0  0
   -3.4810   -1.2800    0.4940 C   0  0  1  0  0  0  0  0  0  0  0  0
   -4.9790   -1.0230    0.4520 C   0  0  0  0  0  0  0  0  0  0  0  0
   -3.3100   -2.5090   -0.1830 O   0  0  0  0  0  0  0  0  0  0  0  0
   -3.1220   -1.5120    1.9130 C   0  0  0  0  0  0  0  0  0  0  0  0
   -3.2010   -0.3930    2.7380 O   0  0  0  0  0  0  0  0  0  0  0  0
   -3.4390   -0.1820   -1.6350 C   0  0  0  0  0  0  0  0  0  0  0  0
   -4.3120    0.9940   -1.5820 C   0  0  0  0  0  0  0  0  0  0  0  0
   -5.4160    1.1580   -2.0260 O   0  0  0  0  0  0  0  0  0  0  0  0
  2  1  1  6
  2  3  1  0
  2 29  1  0
  3  4  1  0
  4  5  1  6
  4 23  1  0
  4 28  1  0
  6  5  1  6
  6  7  1  0
  6 22  1  0
  7  8  1  0
  8  9  2  0
  8 21  1  0
  9 10  1  0
  9 11  1  0
 11 12  1  0
 11 13  2  0
 13 14  1  0
 13 15  1  0
 15 16  1  0
 15 21  2  0
 16 17  1  0
 17 18  1  1
 17 19  1  0
 17 20  1  0
 21 22  1  0
 23 24  1  1
 23 25  1  0
 23 26  1  0
 26 27  1  0
 28 29  1  0
 29 30  2  0
M  END
