
     RDKit          3D

 31 34  0  0  0  0  0  0  0  0999 V2000
   -6.0190   -1.9750   -2.6330 C   0  0  0  0  0  0  0  0  0  0  0  0
   -6.2340   -1.0450   -1.7640 O   0  0  0  0  0  0  0  0  0  0  0  0
   -6.4580   -0.1110   -0.8940 C   0  0  0  0  0  0  0  0  0  0  0  0
   -7.7510    0.3790   -0.6210 C   0  0  0  0  0  0  0  0  0  0  0  0
   -7.9570    1.3650    0.3040 C   0  0  0  0  0  0  0  0  0  0  0  0
   -6.9310    1.9270    1.0080 C   0  0  0  0  0  0  0  0  0  0  0  0
   -7.0720    2.8920    1.9210 F   0  0  0  0  0  0  0  0  0  0  0  0
   -5.6290    1.4590    0.7570 C   0  0  0  0  0  0  0  0  0  0  0  0
   -5.3860    0.4800   -0.1540 C   0  0  0  0  0  0  0  0  0  0  0  0
   -4.0970   -0.0230   -0.4410 N   0  0  0  0  0  0  0  0  0  0  0  0
   -2.8640    0.3580    0.1130 C   0  0  0  0  0  0  0  0  0  0  0  0
   -2.8430    1.2590    0.9780 O   0  0  0  0  0  0  0  0  0  0  0  0
   -1.6010   -0.2850   -0.3110 C   0  0  0  0  0  0  0  0  0  0  0  0
   -1.3930   -1.2840   -1.2310 C   0  0  0  0  0  0  0  0  0  0  0  0
   -0.0400   -1.5650   -1.2980 C   0  0  0  0  0  0  0  0  0  0  0  0
    0.5550   -0.7180   -0.4030 C   0  0  0  0  0  0  0  0  0  0  0  0
    2.0180   -0.6760   -0.1450 C   0  0  0  0  0  0  0  0  0  0  0  0
    2.7610   -1.4580   -0.7760 O   0  0  0  0  0  0  0  0  0  0  0  0
    2.5430    0.2280    0.7910 N   0  0  0  0  0  0  0  0  0  0  0  0
    3.8970    0.3860    1.1370 C   0  0  0  0  0  0  0  0  0  0  0  0
    4.2330    1.2080    2.2330 C   0  0  0  0  0  0  0  0  0  0  0  0
    5.5270    1.4030    2.6030 C   0  0  0  0  0  0  0  0  0  0  0  0
    6.5540    0.8000    1.9150 C   0  0  0  0  0  0  0  0  0  0  0  0
    7.8620    0.8060    2.0410 O   0  0  0  0  0  0  0  0  0  0  0  0
    8.4050    0.0430    1.1010 C   0  0  0  0  0  0  0  0  0  0  0  0
    9.6500   -0.1570    0.9560 O   0  0  0  0  0  0  0  0  0  0  0  0
    7.4140   -0.4600    0.3590 N   0  0  0  0  0  0  0  0  0  0  0  0
    7.5830   -1.3490   -0.7770 C   0  0  0  0  0  0  0  0  0  0  0  0
    6.2590   -0.0010    0.8490 C   0  0  0  0  0  0  0  0  0  0  0  0
    4.9240   -0.1950    0.4760 C   0  0  0  0  0  0  0  0  0  0  0  0
   -0.4000    0.0320    0.1690 N   0  0  0  0  0  0  0  0  0  0  0  0
  1  2  1  0
  2  3  1  0
  3  4  2  0
  3  9  1  0
  4  5  1  0
  5  6  2  0
  6  7  1  0
  6  8  1  0
  8  9  2  0
  9 10  1  0
 10 11  1  0
 11 12  2  0
 11 13  1  0
 13 14  2  0
 13 31  1  0
 14 15  1  0
 15 16  2  0
 16 17  1  0
 16 31  1  0
 17 18  2  0
 17 19  1  0
 19 20  1  0
 20 21  2  0
 20 30  1  0
 21 22  1  0
 22 23  2  0
 23 24  1  0
 23 29  1  0
 24 25  1  0
 25 26  2  0
 25 27  1  0
 27 28  1  0
 27 29  1  0
 29 30  2  0
M  END
