
     RDKit          3D

 30 32  0  0  0  0  0  0  0  0999 V2000
   -1.1300   -3.4620   -0.4320 C   0  0  0  0  0  0  0  0  0  0  0  0
   -0.1970   -2.4080   -0.9330 C   0  0  2  0  0  0  0  0  0  0  0  0
   -0.1050   -2.4850   -2.4420 C   0  0  0  0  0  0  0  0  0  0  0  0
    1.1930   -2.5060   -0.3850 C   0  0  0  0  0  0  0  0  0  0  0  0
    1.6590   -1.0670   -0.4850 C   0  0  2  0  0  0  0  0  0  0  0  0
    2.9590   -0.8240    0.1960 C   0  0  1  0  0  0  0  0  0  0  0  0
    3.9120   -1.6470   -0.4130 O   0  0  0  0  0  0  0  0  0  0  0  0
    3.3850    0.5990   -0.0620 C   0  0  0  0  0  0  0  0  0  0  0  0
    4.6740    0.8490    0.4890 O   0  0  0  0  0  0  0  0  0  0  0  0
    5.1900    2.1240    0.3240 C   0  0  0  0  0  0  0  0  0  0  0  0
    4.6730    3.2320   -0.2940 C   0  0  0  0  0  0  0  0  0  0  0  0
    5.5330    4.2220   -0.1960 O   0  0  0  0  0  0  0  0  0  0  0  0
    6.5970    3.8430    0.4510 C   0  0  0  0  0  0  0  0  0  0  0  0
    6.4410    2.5250    0.8070 C   0  0  0  0  0  0  0  0  0  0  0  0
    7.3340    1.7230    1.5090 O   0  0  0  0  0  0  0  0  0  0  0  0
    0.4960   -0.4270    0.1970 C   0  0  0  0  0  0  0  0  0  0  0  0
    0.4380    0.3880    1.1100 O   0  0  0  0  0  0  0  0  0  0  0  0
   -0.6380   -1.0230   -0.5020 C   0  0  0  0  0  0  0  0  0  0  0  0
   -1.8380   -0.5450   -0.7500 C   0  0  0  0  0  0  0  0  0  0  0  0
   -2.7190   -1.3980   -1.4500 O   0  0  0  0  0  0  0  0  0  0  0  0
   -2.3870    0.7600   -0.3990 C   0  0  2  0  0  0  0  0  0  0  0  0
   -2.8740    1.3260   -1.5910 O   0  0  0  0  0  0  0  0  0  0  0  0
   -1.4970    1.6420    0.1450 O   0  0  0  0  0  0  0  0  0  0  0  0
   -3.5280    0.6230    0.5650 C   0  0  0  0  0  0  0  0  0  0  0  0
   -3.5430   -0.1910    1.6800 C   0  0  0  0  0  0  0  0  0  0  0  0
   -4.7870    0.0030    2.2630 C   0  0  0  0  0  0  0  0  0  0  0  0
   -5.4500    0.9160    1.4730 C   0  0  0  0  0  0  0  0  0  0  0  0
   -6.8270    1.4300    1.7120 C   0  0  0  0  0  0  0  0  0  0  0  0
   -7.1720    2.3370    0.7150 O   0  0  0  0  0  0  0  0  0  0  0  0
   -4.6700    1.2620    0.4720 O   0  0  0  0  0  0  0  0  0  0  0  0
  2  1  1  1
  2  3  1  0
  2  4  1  0
  2 18  1  0
  5  4  1  1
  5  6  1  0
  5 16  1  0
  6  7  1  6
  6  8  1  0
  8  9  1  0
  9 10  1  0
 10 11  2  0
 10 14  1  0
 11 12  1  0
 12 13  1  0
 13 14  2  0
 14 15  1  0
 16 17  2  0
 16 18  1  0
 18 19  2  3
 19 20  1  0
 19 21  1  0
 21 22  1  6
 21 23  1  0
 21 24  1  0
 24 25  2  0
 24 30  1  0
 25 26  1  0
 26 27  2  0
 27 28  1  0
 27 30  1  0
 28 29  1  0
M  END
