
     RDKit          3D

 31 34  0  0  0  0  0  0  0  0999 V2000
   -6.7570    0.7750    1.7010 C   0  0  0  0  0  0  0  0  0  0  0  0
   -6.5820    0.1710    0.3190 C   0  0  0  0  0  0  0  0  0  0  0  0
   -5.3230    0.1410   -0.1940 C   0  0  0  0  0  0  0  0  0  0  0  0
   -4.3170    0.6810    0.6230 N   0  0  0  0  0  0  0  0  0  0  0  0
   -2.9480    0.8610    0.5340 C   0  0  0  0  0  0  0  0  0  0  0  0
   -2.3260    0.5110   -0.4420 O   0  0  0  0  0  0  0  0  0  0  0  0
   -2.1870    1.5260    1.7050 C   0  0  0  0  0  0  0  0  0  0  0  0
   -0.8410    1.5690    1.3670 O   0  0  0  0  0  0  0  0  0  0  0  0
   -0.0390    0.4760    1.1000 C   0  0  0  0  0  0  0  0  0  0  0  0
   -0.3190   -0.8710    1.0950 C   0  0  0  0  0  0  0  0  0  0  0  0
    0.7650   -1.4970    0.7820 O   0  0  0  0  0  0  0  0  0  0  0  0
    1.7620   -0.7010    0.5730 C   0  0  0  0  0  0  0  0  0  0  0  0
    3.1530   -1.0430    0.1980 C   0  0  0  0  0  0  0  0  0  0  0  0
    3.4150   -2.2460    0.0630 O   0  0  0  0  0  0  0  0  0  0  0  0
    4.1350   -0.0580    0.0040 N   0  0  0  0  0  0  0  0  0  0  0  0
    5.4880   -0.2820   -0.3590 C   0  0  0  0  0  0  0  0  0  0  0  0
    6.0160   -1.4900   -0.7320 C   0  0  0  0  0  0  0  0  0  0  0  0
    7.3770   -1.6280   -1.0650 C   0  0  0  0  0  0  0  0  0  0  0  0
    8.2460   -0.5620   -1.0330 C   0  0  0  0  0  0  0  0  0  0  0  0
    9.5380   -0.4220   -1.2920 N   0  0  0  0  0  0  0  0  0  0  0  0
    9.8860    0.8380   -1.1020 N   0  0  0  0  0  0  0  0  0  0  0  0
    8.8020    1.5330   -0.7140 C   0  0  0  0  0  0  0  0  0  0  0  0
    7.7200    0.6550   -0.6580 C   0  0  0  0  0  0  0  0  0  0  0  0
    6.3940    0.7890   -0.3340 C   0  0  0  0  0  0  0  0  0  0  0  0
    1.2920    0.5780    0.7660 C   0  0  0  0  0  0  0  0  0  0  0  0
   -5.2010   -0.4570   -1.4990 C   0  0  0  0  0  0  0  0  0  0  0  0
   -3.9140   -0.5590   -2.2080 C   0  0  0  0  0  0  0  0  0  0  0  0
   -6.3030   -0.9350   -2.1070 C   0  0  0  0  0  0  0  0  0  0  0  0
   -6.1430   -1.4940   -3.3440 F   0  0  0  0  0  0  0  0  0  0  0  0
   -7.5550   -0.8900   -1.5530 O   0  0  0  0  0  0  0  0  0  0  0  0
   -7.8000   -0.3000   -0.3240 C   0  0  0  0  0  0  0  0  0  0  0  0
  1  2  1  0
  2  3  2  0
  2 31  1  0
  3  4  1  0
  3 26  1  0
  4  5  1  0
  5  6  2  0
  5  7  1  0
  7  8  1  0
  8  9  1  0
  9 10  2  0
  9 25  1  0
 10 11  1  0
 11 12  1  0
 12 13  1  0
 12 25  2  0
 13 14  2  0
 13 15  1  0
 15 16  1  0
 16 17  2  0
 16 24  1  0
 17 18  1  0
 18 19  2  0
 19 20  1  0
 19 23  1  0
 20 21  1  0
 21 22  2  0
 22 23  1  0
 23 24  2  0
 26 27  1  0
 26 28  2  0
 28 29  1  0
 28 30  1  0
 30 31  1  0
M  END
