
     RDKit          3D

 34 36  0  0  0  0  0  0  0  0999 V2000
    0.0850   -6.0280    0.0600 C   0  0  0  0  0  0  0  0  0  0  0  0
   -0.2830   -5.6360    1.3120 O   0  0  0  0  0  0  0  0  0  0  0  0
   -0.2300   -4.3080    1.6130 C   0  0  0  0  0  0  0  0  0  0  0  0
   -1.1500   -3.4360    0.8150 C   0  0  0  0  0  0  0  0  0  0  0  0
   -1.9270   -4.0050    0.0220 O   0  0  0  0  0  0  0  0  0  0  0  0
   -1.1230   -2.0320    0.9760 N   0  0  0  0  0  0  0  0  0  0  0  0
   -0.1350   -1.4900    1.8580 C   0  0  0  0  0  0  0  0  0  0  0  0
    1.1780   -1.1570    1.3370 C   0  0  0  0  0  0  0  0  0  0  0  0
    1.2100   -0.2270    0.2390 N   0  0  0  0  0  0  0  0  0  0  0  0
    2.5430    0.1510   -0.2590 C   0  0  0  0  0  0  0  0  0  0  0  0
    3.4850   -0.3930    0.3650 O   0  0  0  0  0  0  0  0  0  0  0  0
    2.6330    1.0310   -1.3220 N   0  0  0  0  0  0  0  0  0  0  0  0
    3.8550    1.5540   -1.8140 C   0  0  0  0  0  0  0  0  0  0  0  0
    4.0130    1.9010   -3.5660 S   0  0  0  0  0  0  0  0  0  0  0  0
    5.6900    2.5450   -3.4950 C   0  0  0  0  0  0  0  0  0  0  0  0
    5.9740    2.4490   -2.1870 C   0  0  0  0  0  0  0  0  0  0  0  0
    5.0580    1.9540   -1.3100 C   0  0  0  0  0  0  0  0  0  0  0  0
    5.2950    2.0970    0.1510 C   0  0  0  0  0  0  0  0  0  0  0  0
    6.5740    2.3620    0.6580 N   0  0  0  0  0  0  0  0  0  0  0  0
    4.3670    1.9860    0.9500 O   0  0  0  0  0  0  0  0  0  0  0  0
   -2.0620   -1.1790    0.3480 C   0  0  0  0  0  0  0  0  0  0  0  0
   -3.0180   -1.5430   -0.5700 C   0  0  0  0  0  0  0  0  0  0  0  0
   -3.9630   -0.6750   -1.1290 C   0  0  0  0  0  0  0  0  0  0  0  0
   -4.9570   -1.2400   -2.1120 C   0  0  0  0  0  0  0  0  0  0  0  0
   -3.9430    0.6320   -0.7440 C   0  0  0  0  0  0  0  0  0  0  0  0
   -3.0080    1.0660    0.1710 C   0  0  0  0  0  0  0  0  0  0  0  0
   -2.1020    0.1880    0.6950 C   0  0  0  0  0  0  0  0  0  0  0  0
   -3.2390    2.4800    0.3490 C   0  0  0  0  0  0  0  0  0  0  0  0
   -2.3950    3.3470    0.8190 C   0  0  0  0  0  0  0  0  0  0  0  0
   -2.7340    4.7640    0.9580 C   0  0  0  0  0  0  0  0  0  0  0  0
   -1.1410    2.9350    1.2010 F   0  0  0  0  0  0  0  0  0  0  0  0
   -4.6270    2.7140   -0.1220 C   0  0  1  0  0  0  0  0  0  0  0  0
   -4.7240    3.9520   -0.6840 F   0  0  0  0  0  0  0  0  0  0  0  0
   -4.7460    1.7090   -1.1240 O   0  0  0  0  0  0  0  0  0  0  0  0
  1  2  1  0
  2  3  1  0
  3  4  1  0
  4  5  2  0
  4  6  1  0
  6  7  1  0
  6 21  1  0
  7  8  1  0
  8  9  1  0
  9 10  1  0
 10 11  2  0
 10 12  1  0
 12 13  1  0
 13 14  1  0
 13 17  2  0
 14 15  1  0
 15 16  2  0
 16 17  1  0
 17 18  1  0
 18 19  1  0
 18 20  2  0
 21 22  2  0
 21 27  1  0
 22 23  1  0
 23 24  1  0
 23 25  2  0
 25 26  1  0
 25 34  1  0
 26 27  2  0
 26 28  1  0
 28 29  2  3
 28 32  1  0
 29 30  1  0
 29 31  1  0
 32 33  1  6
 32 34  1  0
M  END
