
     RDKit          3D

 35 36  0  0  0  0  0  0  0  0999 V2000
    9.0700   -1.2410   -2.0960 C   0  0  0  0  0  0  0  0  0  0  0  0
    9.8300   -0.6820   -1.1070 O   0  0  0  0  0  0  0  0  0  0  0  0
    9.1950   -0.1390   -0.0360 C   0  0  0  0  0  0  0  0  0  0  0  0
    8.3410   -1.0990    0.7660 C   0  0  2  0  0  0  0  0  0  0  0  0
    7.3320   -1.6020   -0.0010 O   0  0  0  0  0  0  0  0  0  0  0  0
    7.9100   -0.4060    2.0370 C   0  0  0  0  0  0  0  0  0  0  0  0
    7.1070    0.6830    1.7930 O   0  0  0  0  0  0  0  0  0  0  0  0
    5.8540    0.6060    1.2330 C   0  0  0  0  0  0  0  0  0  0  0  0
    5.3070   -0.4600    0.8960 O   0  0  0  0  0  0  0  0  0  0  0  0
    5.1040    1.8850    1.0180 C   0  0  0  0  0  0  0  0  0  0  0  0
    3.8600    1.5930    0.4440 O   0  0  0  0  0  0  0  0  0  0  0  0
    2.8980    0.8040    1.0150 C   0  0  0  0  0  0  0  0  0  0  0  0
    3.1110    0.2890    2.1360 O   0  0  0  0  0  0  0  0  0  0  0  0
    1.6310    0.5610    0.3310 C   0  0  2  0  0  0  0  0  0  0  0  0
    1.5770    1.2570   -0.9580 N   0  0  0  0  0  0  0  0  0  0  0  0
    0.4150    0.9350    1.1520 C   0  0  0  0  0  0  0  0  0  0  0  0
   -0.6920    0.2960    0.3540 C   0  0  2  0  0  0  0  0  0  0  0  0
   -1.9150    0.2620    1.0180 O   0  0  0  0  0  0  0  0  0  0  0  0
   -3.0180    0.9130    0.4670 C   0  0  0  0  0  0  0  0  0  0  0  0
   -2.8450    1.5070   -0.6180 O   0  0  0  0  0  0  0  0  0  0  0  0
   -4.2490    0.9440    1.0240 O   0  0  0  0  0  0  0  0  0  0  0  0
   -5.4140    1.5210    0.6140 C   0  0  0  0  0  0  0  0  0  0  0  0
   -6.0860    1.0900   -0.6240 C   0  0  2  0  0  0  0  0  0  0  0  0
   -5.3960    1.3540   -1.9210 C   0  0  0  0  0  0  0  0  0  0  0  0
   -7.2670    1.9010   -0.6950 O   0  0  0  0  0  0  0  0  0  0  0  0
   -6.6060   -0.3080   -0.6400 C   0  0  1  0  0  0  0  0  0  0  0  0
   -7.3180   -0.4630   -1.8530 O   0  0  0  0  0  0  0  0  0  0  0  0
   -5.6050   -1.4010   -0.5730 C   0  0  0  0  0  0  0  0  0  0  0  0
   -6.4960   -2.5710   -0.1250 C   0  0  0  0  0  0  0  0  0  0  0  0
   -7.6330   -2.0460    0.4050 O   0  0  0  0  0  0  0  0  0  0  0  0
   -7.5380   -0.6630    0.4760 C   0  0  2  0  0  0  0  0  0  0  0  0
   -8.8790    0.0100    0.2980 C   0  0  0  0  0  0  0  0  0  0  0  0
   -0.1280   -1.0820    0.0800 C   0  0  0  0  0  0  0  0  0  0  0  0
    1.3740   -0.9360    0.1170 C   0  0  1  0  0  0  0  0  0  0  0  0
    1.9620   -1.3570   -1.0770 O   0  0  0  0  0  0  0  0  0  0  0  0
  1  2  1  0
  2  3  1  0
  3  4  1  0
  4  5  1  6
  4  6  1  0
  6  7  1  0
  7  8  1  0
  8  9  2  0
  8 10  1  0
 10 11  1  0
 11 12  1  0
 12 13  2  0
 12 14  1  0
 14 15  1  6
 14 16  1  0
 14 34  1  0
 16 17  1  0
 17 18  1  1
 17 33  1  0
 18 19  1  0
 19 20  2  0
 19 21  1  0
 21 22  1  0
 22 23  1  0
 23 24  1  6
 23 25  1  0
 23 26  1  0
 26 27  1  6
 26 28  1  0
 26 31  1  0
 28 29  1  0
 29 30  1  0
 30 31  1  0
 31 32  1  6
 33 34  1  0
 34 35  1  6
M  END
