
     RDKit          3D

 35 37  0  0  0  0  0  0  0  0999 V2000
    2.7470    2.1650    1.6220 O   0  0  0  0  0  0  0  0  0  0  0  0
    3.4900    2.4590    0.6480 C   0  0  0  0  0  0  0  0  0  0  0  0
    3.2230    1.7140   -0.6100 C   0  0  0  0  0  0  0  0  0  0  0  0
    2.6620    0.3610   -0.3050 C   0  0  1  0  0  0  0  0  0  0  0  0
    1.1970    0.3170   -0.6310 C   0  0  0  0  0  0  0  0  0  0  0  0
    0.5870   -0.8590   -0.2410 O   0  0  0  0  0  0  0  0  0  0  0  0
   -0.7400   -0.7970   -0.5840 C   0  0  2  0  0  0  0  0  0  0  0  0
   -1.6740   -0.9460    0.5790 C   0  0  0  0  0  0  0  0  0  0  0  0
   -3.0500   -0.7860    0.0930 N   0  0  0  0  0  0  0  0  0  0  0  0
   -4.0040   -0.3180    1.0340 C   0  0  0  0  0  0  0  0  0  0  0  0
   -3.5870   -0.0680    2.2150 O   0  0  0  0  0  0  0  0  0  0  0  0
   -5.4310   -0.0860    0.8040 C   0  0  1  0  0  0  0  0  0  0  0  0
   -5.8650   -0.3960   -0.4750 O   0  0  0  0  0  0  0  0  0  0  0  0
   -6.2890   -0.9220    1.7670 C   0  0  0  0  0  0  0  0  0  0  0  0
   -7.4250   -0.2430    2.1300 O   0  0  0  0  0  0  0  0  0  0  0  0
   -8.0530    0.4280    1.1070 C   0  0  0  0  0  0  0  0  0  0  0  0
   -7.2050    1.5550    0.5440 C   0  0  0  0  0  0  0  0  0  0  0  0
   -5.8110    1.3670    1.1510 C   0  0  2  0  0  0  0  0  0  0  0  0
   -4.8980    2.2600    0.6470 O   0  0  0  0  0  0  0  0  0  0  0  0
   -3.4600   -1.0740   -1.2550 C   0  0  0  0  0  0  0  0  0  0  0  0
   -2.3940   -1.4470   -2.2120 C   0  0  0  0  0  0  0  0  0  0  0  0
   -1.1320   -1.9220   -1.5540 C   0  0  1  0  0  0  0  0  0  0  0  0
   -0.1400   -2.1660   -2.4690 O   0  0  0  0  0  0  0  0  0  0  0  0
    3.3750   -0.6630   -0.9250 O   0  0  0  0  0  0  0  0  0  0  0  0
    4.0300   -1.4860   -0.0130 C   0  0  0  0  0  0  0  0  0  0  0  0
    5.5120   -1.5760   -0.2980 C   0  0  2  0  0  0  0  0  0  0  0  0
    5.8610   -2.8830   -0.6400 O   0  0  0  0  0  0  0  0  0  0  0  0
    6.3680   -1.1190    0.8360 C   0  0  1  0  0  0  0  0  0  0  0  0
    7.5520   -0.5250    0.3510 O   0  0  0  0  0  0  0  0  0  0  0  0
    5.6770   -0.1830    1.7610 C   0  0  0  0  0  0  0  0  0  0  0  0
    5.2540   -0.6500    2.8520 O   0  0  0  0  0  0  0  0  0  0  0  0
    5.5260    1.1310    1.4030 O   0  0  0  0  0  0  0  0  0  0  0  0
    6.3440    1.8040    0.4660 C   0  0  0  0  0  0  0  0  0  0  0  0
    5.8410    3.2130    0.3350 C   0  0  0  0  0  0  0  0  0  0  0  0
    4.4920    3.3830    0.6630 O   0  0  0  0  0  0  0  0  0  0  0  0
  1  2  2  0
  2  3  1  0
  2 35  1  0
  3  4  1  0
  4  5  1  6
  4 24  1  0
  5  6  1  0
  7  6  1  1
  7  8  1  0
  7 22  1  0
  8  9  1  0
  9 10  1  0
  9 20  1  0
 10 11  2  0
 10 12  1  0
 12 13  1  6
 12 14  1  0
 12 18  1  0
 14 15  1  0
 15 16  1  0
 16 17  1  0
 17 18  1  0
 18 19  1  6
 20 21  1  0
 21 22  1  0
 22 23  1  6
 24 25  1  0
 25 26  1  0
 26 27  1  1
 26 28  1  0
 28 29  1  6
 28 30  1  0
 30 31  2  0
 30 32  1  0
 32 33  1  0
 33 34  1  0
 34 35  1  0
M  END
