
     RDKit          3D

 35 36  0  0  0  0  0  0  0  0999 V2000
   -0.4800    1.5800    4.8460 C   0  0  0  0  0  0  0  0  0  0  0  0
    0.0210    0.9290    3.6770 O   0  0  0  0  0  0  0  0  0  0  0  0
    0.6210    1.5960    2.6520 C   0  0  0  0  0  0  0  0  0  0  0  0
    0.7770    2.8260    2.6620 O   0  0  0  0  0  0  0  0  0  0  0  0
    1.1170    0.8250    1.4620 C   0  0  2  0  0  0  0  0  0  0  0  0
    1.6900    1.6520    0.5340 O   0  0  0  0  0  0  0  0  0  0  0  0
    3.0360    1.4790    0.3480 C   0  0  0  0  0  0  0  0  0  0  0  0
    3.4450    0.1180   -0.1460 C   0  0  0  0  0  0  0  0  0  0  0  0
    4.8430    0.0990   -0.2890 O   0  0  0  0  0  0  0  0  0  0  0  0
    5.2210   -1.1390   -0.7370 C   0  0  1  0  0  0  0  0  0  0  0  0
    5.9430   -0.9480   -2.0580 C   0  0  0  0  0  0  0  0  0  0  0  0
    7.0300    0.0750   -1.8310 C   0  0  0  0  0  0  0  0  0  0  0  0
    8.0400   -0.5300   -0.8980 C   0  0  2  0  0  0  0  0  0  0  0  0
    8.7490   -1.4990   -1.5970 O   0  0  0  0  0  0  0  0  0  0  0  0
    7.4580   -1.0350    0.3830 C   0  0  1  0  0  0  0  0  0  0  0  0
    7.2910   -0.0210    1.3200 O   0  0  0  0  0  0  0  0  0  0  0  0
    6.1900   -1.8340    0.1940 C   0  0  0  0  0  0  0  0  0  0  0  0
    0.0090   -0.0130    0.8800 C   0  0  2  0  0  0  0  0  0  0  0  0
    0.5210   -0.7960   -0.1360 O   0  0  0  0  0  0  0  0  0  0  0  0
   -1.1280    0.8770    0.3690 C   0  0  2  0  0  0  0  0  0  0  0  0
   -1.6560    1.6650    1.3620 O   0  0  0  0  0  0  0  0  0  0  0  0
   -2.1540    0.0720   -0.3300 C   0  0  0  0  0  0  0  0  0  0  0  0
   -1.8170   -0.7150   -1.2760 O   0  0  0  0  0  0  0  0  0  0  0  0
   -3.5410    0.0980   -0.0300 N   0  0  0  0  0  0  0  0  0  0  0  0
   -4.5020   -0.6940   -0.7270 C   0  0  1  0  0  0  0  0  0  0  0  0
   -5.2020   -1.7040    0.1340 C   0  0  0  0  0  0  0  0  0  0  0  0
   -5.4240    0.2070   -1.4790 C   0  0  2  0  0  0  0  0  0  0  0  0
   -6.1820    1.1690   -0.6030 C   0  0  0  0  0  0  0  0  0  0  0  0
   -7.2360    1.7720   -1.2870 O   0  0  0  0  0  0  0  0  0  0  0  0
   -8.4630    1.2700   -0.8470 C   0  0  2  0  0  0  0  0  0  0  0  0
   -8.7270    1.6060    0.4770 O   0  0  0  0  0  0  0  0  0  0  0  0
   -8.4480   -0.1390   -1.0350 O   0  0  0  0  0  0  0  0  0  0  0  0
   -7.6150   -0.9120   -1.8170 C   0  0  0  0  0  0  0  0  0  0  0  0
   -8.0430   -2.0650   -2.0530 O   0  0  0  0  0  0  0  0  0  0  0  0
   -6.3220   -0.5770   -2.3980 C   0  0  0  0  0  0  0  0  0  0  0  0
  1  2  1  0
  2  3  1  0
  3  4  2  0
  3  5  1  0
  5  6  1  6
  5 18  1  0
  6  7  1  0
  7  8  1  0
  8  9  1  0
 10  9  1  1
 10 11  1  0
 10 17  1  0
 11 12  1  0
 12 13  1  0
 13 14  1  6
 13 15  1  0
 15 16  1  1
 15 17  1  0
 18 19  1  6
 18 20  1  0
 20 21  1  1
 20 22  1  0
 22 23  2  0
 22 24  1  0
 24 25  1  0
 25 26  1  1
 25 27  1  0
 27 28  1  1
 27 35  1  0
 28 29  1  0
 29 30  1  0
 30 31  1  1
 30 32  1  0
 32 33  1  0
 33 34  2  0
 33 35  1  0
M  END
