
     RDKit          3D

 35 37  0  0  0  0  0  0  0  0999 V2000
    2.1040   -1.9890   -2.3160 C   0  0  0  0  0  0  0  0  0  0  0  0
    1.8710   -1.4360   -0.9370 C   0  0  1  0  0  0  0  0  0  0  0  0
    2.2420   -2.4320    0.1280 C   0  0  0  0  0  0  0  0  0  0  0  0
    3.6590   -2.8910    0.1070 C   0  0  0  0  0  0  0  0  0  0  0  0
    3.8750   -3.8780    1.2190 C   0  0  0  0  0  0  0  0  0  0  0  0
    5.1770   -4.4240    1.3490 N   0  0  0  0  0  0  0  0  0  0  0  0
    2.9840   -4.2340    2.0160 O   0  0  0  0  0  0  0  0  0  0  0  0
    2.4530   -0.0640   -0.7960 C   0  0  2  0  0  0  0  0  0  0  0  0
    3.4970    0.0340    0.1290 O   0  0  0  0  0  0  0  0  0  0  0  0
    4.6690    0.7530   -0.1210 C   0  0  0  0  0  0  0  0  0  0  0  0
    4.7580    1.3250   -1.2360 O   0  0  0  0  0  0  0  0  0  0  0  0
    5.7650    0.8420    0.8770 C   0  0  1  0  0  0  0  0  0  0  0  0
    6.8150    1.6000    0.4170 O   0  0  0  0  0  0  0  0  0  0  0  0
    6.8450    2.7770    1.1570 C   0  0  0  0  0  0  0  0  0  0  0  0
    6.1370    2.5390    2.3590 O   0  0  0  0  0  0  0  0  0  0  0  0
    5.2720    1.5070    2.0900 C   0  0  0  0  0  0  0  0  0  0  0  0
    4.2580    1.1810    2.7360 O   0  0  0  0  0  0  0  0  0  0  0  0
    1.1150    0.4440   -0.2860 C   0  0  0  0  0  0  0  0  0  0  0  0
    0.5130   -0.8640   -0.6780 C   0  0  2  0  0  0  0  0  0  0  0  0
   -0.1250   -1.4670    0.4020 O   0  0  0  0  0  0  0  0  0  0  0  0
   -0.4210   -0.7530   -1.8370 C   0  0  0  0  0  0  0  0  0  0  0  0
   -1.7330   -0.1740   -1.4560 C   0  0  0  0  0  0  0  0  0  0  0  0
   -2.5990   -0.0410   -2.3510 O   0  0  0  0  0  0  0  0  0  0  0  0
   -2.0300    0.2160   -0.1770 O   0  0  0  0  0  0  0  0  0  0  0  0
   -3.2650    0.7710    0.2330 C   0  0  1  0  0  0  0  0  0  0  0  0
   -3.1290    1.0460    1.7300 C   0  0  0  0  0  0  0  0  0  0  0  0
   -2.8720   -0.1390    2.3720 O   0  0  0  0  0  0  0  0  0  0  0  0
   -3.6620    1.9860   -0.5410 C   0  0  0  0  0  0  0  0  0  0  0  0
   -5.0830    1.8050   -1.0690 C   0  0  2  0  0  0  0  0  0  0  0  0
   -5.5100    2.9610   -1.7080 O   0  0  0  0  0  0  0  0  0  0  0  0
   -5.9400    1.4400    0.1180 C   0  0  1  0  0  0  0  0  0  0  0  0
   -7.3720    1.2570   -0.3620 C   0  0  0  0  0  0  0  0  0  0  0  0
   -7.7870    2.4450   -0.9160 O   0  0  0  0  0  0  0  0  0  0  0  0
   -5.4420    0.1140    0.6460 C   0  0  0  0  0  0  0  0  0  0  0  0
   -4.2230   -0.2290    0.0750 O   0  0  0  0  0  0  0  0  0  0  0  0
  2  1  1  6
  2  3  1  0
  2  8  1  0
  2 19  1  0
  3  4  1  0
  4  5  1  0
  5  6  1  0
  5  7  2  0
  8  9  1  1
  8 18  1  0
  9 10  1  0
 10 11  2  0
 12 10  1  6
 12 13  1  0
 12 16  1  0
 13 14  1  0
 14 15  1  0
 15 16  1  0
 16 17  2  0
 18 19  1  0
 19 20  1  1
 19 21  1  0
 21 22  1  0
 22 23  2  0
 22 24  1  0
 24 25  1  0
 25 26  1  1
 25 28  1  0
 25 35  1  0
 26 27  1  0
 28 29  1  0
 29 30  1  1
 29 31  1  0
 31 32  1  6
 31 34  1  0
 32 33  1  0
 34 35  1  0
M  END
