
     RDKit          3D

 35 38  0  0  0  0  0  0  0  0999 V2000
   10.6550    3.4870    1.4540 C   0  0  0  0  0  0  0  0  0  0  0  0
   10.5790    2.0070    1.2820 C   0  0  0  0  0  0  0  0  0  0  0  0
    9.2360    1.5780    0.7560 C   0  0  0  0  0  0  0  0  0  0  0  0
    8.4010    2.4810    0.5530 O   0  0  0  0  0  0  0  0  0  0  0  0
    8.9160    0.2440    0.5010 N   0  0  0  0  0  0  0  0  0  0  0  0
    7.7000   -0.2810    0.0170 C   0  0  0  0  0  0  0  0  0  0  0  0
    6.5380    0.4340   -0.1020 C   0  0  0  0  0  0  0  0  0  0  0  0
    5.3540   -0.1490   -0.6060 C   0  0  0  0  0  0  0  0  0  0  0  0
    5.3090   -1.4580   -0.9990 C   0  0  0  0  0  0  0  0  0  0  0  0
    4.1400   -2.1340   -1.4890 C   0  0  0  0  0  0  0  0  0  0  0  0
    4.2690   -3.1320   -2.2600 O   0  0  0  0  0  0  0  0  0  0  0  0
    2.8090   -1.6710   -1.0970 C   0  0  0  0  0  0  0  0  0  0  0  0
    2.3060   -0.4060   -0.0330 S   0  0  0  0  0  0  0  0  0  0  0  0
    0.4530   -0.7470   -0.2500 C   0  0  0  0  0  0  0  0  0  0  0  0
   -0.4530    0.0990    0.4850 N   0  0  0  0  0  0  0  0  0  0  0  0
   -1.8400   -0.1360    0.3550 C   0  0  0  0  0  0  0  0  0  0  0  0
   -2.3900   -1.1130   -0.4360 C   0  0  0  0  0  0  0  0  0  0  0  0
   -3.7640   -1.2980   -0.5190 C   0  0  0  0  0  0  0  0  0  0  0  0
   -4.5850   -0.4750    0.2150 C   0  0  0  0  0  0  0  0  0  0  0  0
   -5.9910   -0.6370    0.1440 N   0  0  0  0  0  0  0  0  0  0  0  0
   -6.6170   -1.4120   -0.9120 C   0  0  0  0  0  0  0  0  0  0  0  0
   -7.9180   -0.8570   -1.3950 C   0  0  0  0  0  0  0  0  0  0  0  0
   -8.7150   -0.1930   -0.4140 N   0  0  2  0  0  0  0  0  0  0  0  0
   -9.7430    0.5750   -1.0910 C   0  0  0  0  0  0  0  0  0  0  0  0
   -7.9120    0.7710    0.3610 C   0  0  0  0  0  0  0  0  0  0  0  0
   -6.9140   -0.0740    1.1110 C   0  0  0  0  0  0  0  0  0  0  0  0
   -4.0350    0.5100    1.0120 C   0  0  0  0  0  0  0  0  0  0  0  0
   -2.6790    0.6910    1.0920 C   0  0  0  0  0  0  0  0  0  0  0  0
   -2.1560    1.6760    1.8910 O   0  0  0  0  0  0  0  0  0  0  0  0
   -3.0150    2.5070    2.6330 C   0  0  0  0  0  0  0  0  0  0  0  0
    0.5270   -1.6450   -0.9960 N   0  0  0  0  0  0  0  0  0  0  0  0
    1.5600   -2.2420   -1.5270 C   0  0  0  0  0  0  0  0  0  0  0  0
    1.5460   -3.3680   -2.4600 N   0  0  0  0  0  0  0  0  0  0  0  0
    6.4990   -2.1990   -0.8800 C   0  0  0  0  0  0  0  0  0  0  0  0
    7.6390   -1.6110   -0.3880 C   0  0  0  0  0  0  0  0  0  0  0  0
  1  2  1  0
  2  3  1  0
  3  4  2  0
  3  5  1  0
  5  6  1  0
  6  7  2  0
  6 35  1  0
  7  8  1  0
  8  9  2  0
  9 10  1  0
  9 34  1  0
 10 11  2  0
 10 12  1  0
 12 13  1  0
 12 32  2  0
 13 14  1  0
 14 15  1  0
 14 31  2  0
 15 16  1  0
 16 17  2  0
 16 28  1  0
 17 18  1  0
 18 19  2  0
 19 20  1  0
 19 27  1  0
 20 21  1  0
 20 26  1  0
 21 22  1  0
 22 23  1  0
 23 24  1  6
 23 25  1  0
 25 26  1  0
 27 28  2  0
 28 29  1  0
 29 30  1  0
 31 32  1  0
 32 33  1  0
 34 35  2  0
M  CHG  1  23   1
M  END
