
     RDKit          3D

 29 30  0  0  0  0  0  0  0  0999 V2000
    6.7050   -1.5620    0.0940 C   0  0  0  0  0  0  0  0  0  0  0  0
    6.0890   -0.3010   -0.5180 C   0  0  1  0  0  0  0  0  0  0  0  0
    4.6560   -0.5090   -0.4970 N   0  0  0  0  0  0  0  0  0  0  0  0
    3.9790   -0.6290   -1.7190 C   0  0  0  0  0  0  0  0  0  0  0  0
    4.6490   -0.5570   -2.7910 O   0  0  0  0  0  0  0  0  0  0  0  0
    2.5410   -0.8320   -1.7510 C   0  0  0  0  0  0  0  0  0  0  0  0
    1.7180   -0.9110   -0.6580 C   0  0  0  0  0  0  0  0  0  0  0  0
    0.4300   -1.1000   -1.1340 C   0  0  0  0  0  0  0  0  0  0  0  0
   -0.8080   -1.2440   -0.3760 C   0  0  0  0  0  0  0  0  0  0  0  0
   -0.8320   -1.2340    0.8650 O   0  0  0  0  0  0  0  0  0  0  0  0
   -2.0210   -1.4010   -1.0690 N   0  0  0  0  0  0  0  0  0  0  0  0
   -3.2820   -1.5490   -0.5050 N   0  0  0  0  0  0  0  0  0  0  0  0
   -4.2590   -0.5290   -0.6470 C   0  0  0  0  0  0  0  0  0  0  0  0
   -3.9630    0.4940   -1.2740 O   0  0  0  0  0  0  0  0  0  0  0  0
   -5.5730   -0.6640   -0.0800 N   0  0  0  0  0  0  0  0  0  0  0  0
   -6.5900    0.3160   -0.1890 C   0  0  1  0  0  0  0  0  0  0  0  0
   -7.7340   -0.1020   -1.1030 C   0  0  0  0  0  0  0  0  0  0  0  0
   -8.7720    1.4090   -0.9000 S   0  0  0  0  0  0  0  0  0  0  0  0
   -8.0820    1.9540    0.7170 C   0  0  0  0  0  0  0  0  0  0  0  0
   -7.2480    0.7430    1.0720 C   0  0  2  0  0  0  0  0  0  0  0  0
   -6.3200    1.0210    2.0710 O   0  0  0  0  0  0  0  0  0  0  0  0
    0.5520   -1.1240   -2.4680 N   0  0  0  0  0  0  0  0  0  0  0  0
    1.7980   -0.9660   -2.8500 N   0  0  0  0  0  0  0  0  0  0  0  0
    6.4350    0.8680    0.3220 C   0  0  0  0  0  0  0  0  0  0  0  0
    5.5440    1.5070    0.9600 O   0  0  0  0  0  0  0  0  0  0  0  0
    7.7640    1.3320    0.4560 N   0  0  0  0  0  0  0  0  0  0  0  0
    8.1830    2.6800    1.4190 S   0  0  1  0  0  0  0  0  0  0  0  0
    7.3560    2.7720    2.6600 O   0  0  0  0  0  0  0  0  0  0  0  0
    9.6610    2.6660    1.7630 O   0  0  0  0  0  0  0  0  0  0  0  0
  2  1  1  1
  2  3  1  0
  2 24  1  0
  3  4  1  0
  4  5  2  0
  4  6  1  0
  6  7  2  0
  6 23  1  0
  7  8  1  0
  8  9  1  0
  8 22  2  0
  9 10  2  0
  9 11  1  0
 11 12  1  0
 12 13  1  0
 13 14  2  0
 13 15  1  0
 16 15  1  1
 16 17  1  0
 16 20  1  0
 17 18  1  0
 18 19  1  0
 19 20  1  0
 20 21  1  1
 22 23  1  0
 24 25  2  0
 24 26  1  0
 27 26  1  1
 27 28  2  0
 27 29  2  0
M  END
