
     RDKit          3D

 29 30  0  0  0  0  0  0  0  0999 V2000
   -3.7650   -3.4650    0.7040 C   0  0  0  0  0  0  0  0  0  0  0  0
   -3.8570   -2.0690    0.8900 O   0  0  0  0  0  0  0  0  0  0  0  0
   -3.4410   -1.2140   -0.1130 C   0  0  0  0  0  0  0  0  0  0  0  0
   -2.9910   -1.7250   -1.1650 O   0  0  0  0  0  0  0  0  0  0  0  0
   -3.5190    0.2360    0.0360 C   0  0  1  0  0  0  0  0  0  0  0  0
   -2.7330    0.7870    1.1750 C   0  0  0  0  0  0  0  0  0  0  0  0
   -1.3000    0.5280    1.1270 C   0  0  0  0  0  0  0  0  0  0  0  0
   -0.8250   -0.1210    0.1620 O   0  0  0  0  0  0  0  0  0  0  0  0
   -0.4170    0.9840    2.1360 N   0  0  0  0  0  0  0  0  0  0  0  0
    0.9580    0.7510    2.1190 N   0  0  0  0  0  0  0  0  0  0  0  0
    1.8060    1.3800    3.0720 C   0  0  0  0  0  0  0  0  0  0  0  0
    1.1150    2.3760    4.1800 S   0  0  0  0  0  0  0  0  0  0  0  0
    3.2090    1.1740    3.0940 N   0  0  0  0  0  0  0  0  0  0  0  0
    3.7560    0.3120    2.1250 N   0  0  0  0  0  0  0  0  0  0  0  0
    4.5390    0.7880    1.0540 C   0  0  0  0  0  0  0  0  0  0  0  0
    4.7520    2.0120    0.9630 O   0  0  0  0  0  0  0  0  0  0  0  0
    5.0990   -0.1700    0.0500 C   0  0  0  0  0  0  0  0  0  0  0  0
    4.8630   -1.4590    0.1630 C   0  0  0  0  0  0  0  0  0  0  0  0
    5.7590   -2.2790   -1.3100 S   0  0  0  0  0  0  0  0  0  0  0  0
    6.2650   -3.7900   -1.5580 O   0  0  0  0  0  0  0  0  0  0  0  0
    6.3610   -0.7270   -1.9160 C   0  0  0  0  0  0  0  0  0  0  0  0
    5.8880    0.2090   -1.0460 N   0  0  0  0  0  0  0  0  0  0  0  0
   -3.2370    0.9700   -1.2700 C   0  0  1  0  0  0  0  0  0  0  0  0
   -4.1690    0.6120   -2.2970 N   0  0  0  0  0  0  0  0  0  0  0  0
   -5.2350    1.5550   -2.2300 C   0  0  0  0  0  0  0  0  0  0  0  0
   -6.3940    1.4390   -2.7400 O   0  0  0  0  0  0  0  0  0  0  0  0
   -4.8230    2.6960   -1.4850 N   0  0  0  0  0  0  0  0  0  0  0  0
   -3.4820    2.4260   -1.1010 C   0  0  0  0  0  0  0  0  0  0  0  0
   -2.6840    3.3240   -0.6930 O   0  0  0  0  0  0  0  0  0  0  0  0
  1  2  1  0
  2  3  1  0
  3  4  2  0
  3  5  1  0
  5  6  1  1
  5 23  1  0
  6  7  1  0
  7  8  2  0
  7  9  1  0
  9 10  1  0
 10 11  1  0
 11 12  2  0
 11 13  1  0
 13 14  1  0
 14 15  1  0
 15 16  2  0
 15 17  1  0
 17 18  2  0
 17 22  1  0
 18 19  1  0
 19 20  1  1
 19 21  2  0
 21 22  1  0
 23 24  1  6
 23 28  1  0
 24 25  1  0
 25 26  2  0
 25 27  1  0
 27 28  1  0
 28 29  2  0
M  END
