
     RDKit          3D

 28 29  0  0  0  0  0  0  0  0999 V2000
   -5.2410    1.7440   -1.3070 N   0  0  0  0  0  0  0  0  0  0  0  0
   -4.3330    1.4990   -0.4260 C   0  0  0  0  0  0  0  0  0  0  0  0
   -3.0510    2.1160   -0.5230 N   0  0  0  0  0  0  0  0  0  0  0  0
   -1.9770    1.9280    0.3860 C   0  0  0  0  0  0  0  0  0  0  0  0
   -1.0720    2.7830    0.4210 O   0  0  0  0  0  0  0  0  0  0  0  0
   -1.9270    0.7220    1.2940 C   0  0  2  0  0  0  0  0  0  0  0  0
   -1.9460   -0.5310    0.4810 C   0  0  0  0  0  0  0  0  0  0  0  0
   -0.8610   -0.7020   -0.4360 N   0  0  0  0  0  0  0  0  0  0  0  0
    0.4550   -0.8070    0.1140 C   0  0  0  0  0  0  0  0  0  0  0  0
    0.6720   -0.7560    1.3460 O   0  0  0  0  0  0  0  0  0  0  0  0
    1.6090   -0.9860   -0.7300 N   0  0  0  0  0  0  0  0  0  0  0  0
    2.8610   -1.1380   -0.1740 N   0  0  0  0  0  0  0  0  0  0  0  0
    4.0670   -0.5270   -0.5600 C   0  0  0  0  0  0  0  0  0  0  0  0
    4.0590    0.2760   -1.5160 O   0  0  0  0  0  0  0  0  0  0  0  0
    5.3470   -0.8050    0.1220 C   0  0  0  0  0  0  0  0  0  0  0  0
    6.5700   -0.2530   -0.4950 C   0  0  1  0  0  0  0  0  0  0  0  0
    6.4830    1.5540   -0.5460 S   0  0  0  0  0  0  0  0  0  0  0  0
    7.9630    1.8590    0.4010 C   0  0  0  0  0  0  0  0  0  0  0  0
    8.6290    2.8830    0.4300 O   0  0  0  0  0  0  0  0  0  0  0  0
    8.1690    0.6470    1.0950 N   0  0  0  0  0  0  0  0  0  0  0  0
    7.6830   -0.4870    0.4360 C   0  0  0  0  0  0  0  0  0  0  0  0
    8.1510   -1.6670    0.6120 O   0  0  0  0  0  0  0  0  0  0  0  0
   -3.6090    0.7310    2.1160 S   0  0  0  0  0  0  0  0  0  0  0  0
   -4.6830    0.5880    0.6420 C   0  0  0  0  0  0  0  0  0  0  0  0
   -5.6070   -0.3080    0.6360 C   0  0  0  0  0  0  0  0  0  0  0  0
   -6.5460   -0.6440   -0.4620 C   0  0  1  0  0  0  0  0  0  0  0  0
   -6.7020   -2.1170   -0.4740 N   0  0  0  0  0  0  0  0  0  0  0  0
   -7.7720   -0.0610   -0.2030 O   0  0  0  0  0  0  0  0  0  0  0  0
  1  2  2  0
  2  3  1  0
  2 24  1  0
  3  4  1  0
  4  5  2  0
  4  6  1  0
  6  7  1  6
  6 23  1  0
  7  8  1  0
  8  9  1  0
  9 10  2  0
  9 11  1  0
 11 12  1  0
 12 13  1  0
 13 14  2  0
 13 15  1  0
 16 15  1  1
 16 17  1  0
 16 21  1  0
 17 18  1  0
 18 19  2  0
 18 20  1  0
 20 21  1  0
 21 22  2  0
 23 24  1  0
 24 25  2  3
 25 26  1  0
 26 27  1  1
 26 28  1  0
M  END
