
     RDKit          3D

 16 17  0  0  0  0  0  0  0  0999 V2000
    4.9800    0.4780    1.0030 C   0  0  0  0  0  0  0  0  0  0  0  0
    4.5600   -0.0650   -0.1240 C   0  0  0  0  0  0  0  0  0  0  0  0
    3.1730    0.1510   -0.5690 C   0  0  0  0  0  0  0  0  0  0  0  0
    2.4680   -1.1330   -0.6840 N   0  0  0  0  0  0  0  0  0  0  0  0
    1.2730   -1.1330    0.1350 C   0  0  0  0  0  0  0  0  0  0  0  0
    0.1890   -0.4040   -0.5450 C   0  0  0  0  0  0  0  0  0  0  0  0
    0.1870    0.2140   -1.7480 C   0  0  0  0  0  0  0  0  0  0  0  0
   -1.0250    0.7680   -2.0000 N   0  0  0  0  0  0  0  0  0  0  0  0
   -1.8240    0.5040   -0.9390 C   0  0  0  0  0  0  0  0  0  0  0  0
   -3.1450    0.8130   -0.6390 C   0  0  0  0  0  0  0  0  0  0  0  0
   -3.7530    0.4230    0.5370 C   0  0  0  0  0  0  0  0  0  0  0  0
   -5.1860    0.7780    0.8260 C   0  0  0  0  0  0  0  0  0  0  0  0
   -3.0040   -0.3030    1.4420 C   0  0  0  0  0  0  0  0  0  0  0  0
   -3.8130   -0.8650    3.0900 Br  0  0  0  0  0  0  0  0  0  0  0  0
   -1.6890   -0.6180    1.1560 C   0  0  0  0  0  0  0  0  0  0  0  0
   -1.0920   -0.2220   -0.0240 C   0  0  0  0  0  0  0  0  0  0  0  0
  1  2  2  0
  2  3  1  0
  3  4  1  0
  4  5  1  0
  5  6  1  0
  6  7  2  0
  6 16  1  0
  7  8  1  0
  8  9  1  0
  9 10  2  0
  9 16  1  0
 10 11  1  0
 11 12  1  0
 11 13  2  0
 13 14  1  0
 13 15  1  0
 15 16  2  0
M  CHG  1   4   1
M  END
