
     RDKit          3D

 16 16  0  0  0  0  0  0  0  0999 V2000
   -1.8080   -2.7900    0.6000 C   0  0  0  0  0  0  0  0  0  0  0  0
   -2.6640   -1.5760    0.5560 C   0  0  0  0  0  0  0  0  0  0  0  0
   -1.9150   -0.2900    0.7340 C   0  0  0  0  0  0  0  0  0  0  0  0
   -0.6210   -0.3910    0.9020 C   0  0  0  0  0  0  0  0  0  0  0  0
    0.3630    0.7020    1.0990 C   0  0  0  0  0  0  0  0  0  0  0  0
    1.3790    0.6000    0.0540 N   0  0  0  0  0  0  0  0  0  0  0  0
    1.0530    0.8960   -1.3210 C   0  0  0  0  0  0  0  0  0  0  0  0
    2.1310    0.7250   -2.0420 C   0  0  0  0  0  0  0  0  0  0  0  0
    3.2820    0.3020   -1.2360 C   0  0  0  0  0  0  0  0  0  0  0  0
    2.7200    0.2290    0.1710 C   0  0  0  0  0  0  0  0  0  0  0  0
    3.4650   -0.1330    1.1660 C   0  0  0  0  0  0  0  0  0  0  0  0
    4.9280   -0.4740    0.9210 C   0  0  0  0  0  0  0  0  0  0  0  0
    2.8380   -0.2810    2.9460 Br  0  0  0  0  0  0  0  0  0  0  0  0
   -2.6330    0.9800    0.7240 C   0  0  0  0  0  0  0  0  0  0  0  0
   -3.4120    1.2940   -0.5110 C   0  0  0  0  0  0  0  0  0  0  0  0
   -2.6880    1.3680   -1.7290 N   0  0  0  0  0  0  0  0  0  0  0  0
  1  2  1  0
  2  3  1  0
  3  4  2  3
  3 14  1  0
  4  5  1  0
  5  6  1  0
  6  7  1  0
  6 10  1  0
  7  8  2  0
  8  9  1  0
  9 10  1  0
 10 11  2  3
 11 12  1  0
 11 13  1  0
 14 15  1  0
 15 16  1  0
M  CHG  1  16   1
M  END
