
     RDKit          3D

 16 16  0  0  0  0  0  0  0  0999 V2000
    5.2060    1.5730    1.0760 C   0  0  0  0  0  0  0  0  0  0  0  0
    3.9760    0.7070    1.0860 C   0  0  0  0  0  0  0  0  0  0  0  0
    3.0910    0.9240   -0.1140 C   0  0  0  0  0  0  0  0  0  0  0  0
    1.8980   -0.0210    0.0520 C   0  0  0  0  0  0  0  0  0  0  0  0
    0.9330    0.0930   -1.0740 C   0  0  0  0  0  0  0  0  0  0  0  0
   -0.1790   -0.8060   -0.8470 N   0  0  0  0  0  0  0  0  0  0  0  0
    0.1200   -2.2230   -0.9950 C   0  0  0  0  0  0  0  0  0  0  0  0
   -0.7170   -3.1880   -0.8820 C   0  0  0  0  0  0  0  0  0  0  0  0
   -2.0940   -2.8590   -0.5790 C   0  0  0  0  0  0  0  0  0  0  0  0
   -2.4540   -1.5750   -0.4250 C   0  0  0  0  0  0  0  0  0  0  0  0
   -3.8860   -1.3910   -0.1120 C   0  0  0  0  0  0  0  0  0  0  0  0
   -1.5260   -0.4420   -0.5450 C   0  0  0  0  0  0  0  0  0  0  0  0
   -1.8410    0.7890   -0.2570 C   0  0  0  0  0  0  0  0  0  0  0  0
   -0.3970    2.1100   -0.2200 Br  0  0  0  0  0  0  0  0  0  0  0  0
   -3.1730    1.3950   -0.0610 C   0  0  0  0  0  0  0  0  0  0  0  0
   -3.4070    1.8980    1.2740 N   0  0  0  0  0  0  0  0  0  0  0  0
  1  2  1  0
  2  3  1  0
  3  4  1  0
  4  5  1  0
  5  6  1  0
  6  7  1  0
  6 12  1  0
  7  8  2  0
  8  9  1  0
  9 10  2  0
 10 11  1  0
 10 12  1  0
 12 13  2  3
 13 14  1  0
 13 15  1  0
 15 16  1  0
M  CHG  1  16   1
M  END
