
     RDKit          3D

 16 16  0  0  0  0  0  0  0  0999 V2000
    0.5570   -3.0130    1.2080 C   0  0  0  0  0  0  0  0  0  0  0  0
    0.4280   -1.9230    0.4600 C   0  0  0  0  0  0  0  0  0  0  0  0
    0.2200   -2.0460   -0.9590 C   0  0  0  0  0  0  0  0  0  0  0  0
    0.1370   -0.9590   -1.7070 C   0  0  0  0  0  0  0  0  0  0  0  0
   -0.0770   -0.9850   -3.1320 C   0  0  0  0  0  0  0  0  0  0  0  0
   -0.2390   -2.2340   -3.8870 C   0  0  0  0  0  0  0  0  0  0  0  0
   -0.1330    0.1750   -3.7870 C   0  0  0  0  0  0  0  0  0  0  0  0
    0.0240    1.4080   -3.0580 N   0  0  0  0  0  0  0  0  0  0  0  0
   -0.4450    0.2400   -5.6540 Br  0  0  0  0  0  0  0  0  0  0  0  0
    0.4580   -0.6800    1.1150 N   0  0  0  0  0  0  0  0  0  0  0  0
   -0.7060    0.1130    1.3630 C   0  0  0  0  0  0  0  0  0  0  0  0
   -0.3270    1.2590    2.2730 C   0  0  0  0  0  0  0  0  0  0  0  0
   -0.8960    1.4940    3.4360 C   0  0  0  0  0  0  0  0  0  0  0  0
   -0.2560    2.6850    4.0160 C   0  0  0  0  0  0  0  0  0  0  0  0
    0.7670    3.0890    3.0400 C   0  0  0  0  0  0  0  0  0  0  0  0
    0.7050    2.2420    2.0250 C   0  0  0  0  0  0  0  0  0  0  0  0
  1  2  2  0
  2  3  1  0
  2 10  1  0
  3  4  2  3
  4  5  1  0
  5  6  1  0
  5  7  2  3
  7  8  1  0
  7  9  1  0
 10 11  1  0
 11 12  1  0
 12 13  2  0
 12 16  1  0
 13 14  1  0
 14 15  1  0
 15 16  2  0
M  END
