
     RDKit          3D

 21 24  0  0  0  0  0  0  0  0999 V2000
   -6.3790   -0.9370   -0.5680 C   0  0  0  0  0  0  0  0  0  0  0  0
   -5.1330   -1.2330   -0.9040 C   0  0  0  0  0  0  0  0  0  0  0  0
   -4.0970   -0.3380   -0.5240 N   0  0  0  0  0  0  0  0  0  0  0  0
   -2.7690   -0.3550   -0.7810 C   0  0  0  0  0  0  0  0  0  0  0  0
   -2.2150    0.7630   -0.2540 C   0  0  0  0  0  0  0  0  0  0  0  0
   -0.8300    1.2450   -0.2610 C   0  0  0  0  0  0  0  0  0  0  0  0
    0.1160    1.0300    1.2290 S   0  0  0  0  0  0  0  0  0  0  0  0
    1.6570    0.2200    0.9460 C   0  0  0  0  0  0  0  0  0  0  0  0
    1.8310   -1.0870    1.0580 N   0  0  0  0  0  0  0  0  0  0  0  0
    3.0480   -1.6870    0.8270 C   0  0  0  0  0  0  0  0  0  0  0  0
    4.1310   -0.9150    0.4640 C   0  0  0  0  0  0  0  0  0  0  0  0
    5.3810   -1.4210    0.2050 C   0  0  0  0  0  0  0  0  0  0  0  0
    6.4800   -0.6640   -0.1700 C   0  0  0  0  0  0  0  0  0  0  0  0
    6.2710    0.7030   -0.2830 C   0  0  0  0  0  0  0  0  0  0  0  0
    5.0330    1.2380   -0.0300 C   0  0  0  0  0  0  0  0  0  0  0  0
    3.9430    0.4490    0.3460 C   0  0  0  0  0  0  0  0  0  0  0  0
    2.7470    0.9810    0.5830 N   0  0  0  0  0  0  0  0  0  0  0  0
   -3.2320    1.4600    0.3340 N   0  0  0  0  0  0  0  0  0  0  0  0
   -4.3540    0.7840    0.1620 C   0  0  0  0  0  0  0  0  0  0  0  0
   -5.7300    1.1030    0.6340 C   0  0  0  0  0  0  0  0  0  0  0  0
   -6.6820    0.2220    0.1380 O   0  0  0  0  0  0  0  0  0  0  0  0
  1  2  2  0
  1 21  1  0
  2  3  1  0
  3  4  1  0
  3 19  1  0
  4  5  2  0
  5  6  1  0
  5 18  1  0
  6  7  1  0
  7  8  1  0
  8  9  2  0
  8 17  1  0
  9 10  1  0
 10 11  2  0
 11 12  1  0
 11 16  1  0
 12 13  2  0
 13 14  1  0
 14 15  2  0
 15 16  1  0
 16 17  2  0
 18 19  2  0
 19 20  1  0
 20 21  1  0
M  END
