
     RDKit          3D

 21 24  0  0  0  0  0  0  0  0999 V2000
    6.2750    0.5450   -1.7900 C   0  0  0  0  0  0  0  0  0  0  0  0
    6.9200    0.4310   -0.6410 C   0  0  0  0  0  0  0  0  0  0  0  0
    5.8580    0.2940    0.3510 C   0  0  0  0  0  0  0  0  0  0  0  0
    4.6890    0.2790   -0.2680 C   0  0  0  0  0  0  0  0  0  0  0  0
    3.3870    0.1570    0.3770 C   0  0  0  0  0  0  0  0  0  0  0  0
    3.1620    0.0410    1.6960 N   0  0  0  0  0  0  0  0  0  0  0  0
    1.8890   -0.0460    1.9200 O   0  0  0  0  0  0  0  0  0  0  0  0
    1.2800    0.0120    0.7610 C   0  0  0  0  0  0  0  0  0  0  0  0
   -0.1760   -0.0570    0.6300 C   0  0  0  0  0  0  0  0  0  0  0  0
   -0.7820    0.0070   -0.6040 C   0  0  0  0  0  0  0  0  0  0  0  0
   -2.1650   -0.0550   -0.7660 C   0  0  0  0  0  0  0  0  0  0  0  0
   -2.9520   -0.1870    0.3590 C   0  0  0  0  0  0  0  0  0  0  0  0
   -4.4040   -0.2580    0.2570 C   0  0  0  0  0  0  0  0  0  0  0  0
   -5.4010   -0.3690    0.9800 N   0  0  0  0  0  0  0  0  0  0  0  0
   -6.6370   -0.4060    0.5940 C   0  0  0  0  0  0  0  0  0  0  0  0
   -6.8860   -0.3150   -0.7320 C   0  0  0  0  0  0  0  0  0  0  0  0
   -5.2240   -0.1700   -1.4240 S   0  0  0  0  0  0  0  0  0  0  0  0
   -2.3230   -0.2480    1.5700 C   0  0  0  0  0  0  0  0  0  0  0  0
   -0.9870   -0.1850    1.6930 N   0  0  0  0  0  0  0  0  0  0  0  0
    2.1950    0.1390   -0.2190 N   0  0  0  0  0  0  0  0  0  0  0  0
    4.9630    0.4060   -1.6870 C   0  0  0  0  0  0  0  0  0  0  0  0
  1  2  2  0
  1 21  2  0
  2  3  1  0
  3  4  2  0
  4  5  1  0
  4 21  1  0
  5  6  2  0
  5 20  1  0
  6  7  1  0
  7  8  1  0
  8  9  1  0
  8 20  2  0
  9 10  2  0
  9 19  1  0
 10 11  1  0
 11 12  2  0
 12 13  1  0
 12 18  1  0
 13 14  2  0
 13 17  1  0
 14 15  1  0
 15 16  2  0
 16 17  1  0
 18 19  2  0
M  END
