
     RDKit          3D

 27 30  0  0  0  0  0  0  0  0999 V2000
   -1.9590    0.2720   -2.3750 C   0  0  0  0  0  0  0  0  0  0  0  0
   -1.4430    0.3130   -0.9960 C   0  0  1  0  0  0  0  0  0  0  0  0
   -2.1600   -0.3830    0.0870 C   0  0  0  0  0  0  0  0  0  0  0  0
   -3.5340    0.0050    0.4270 C   0  0  2  0  0  0  0  0  0  0  0  0
   -4.5450   -0.1390   -0.6810 C   0  0  0  0  0  0  0  0  0  0  0  0
   -3.7270    1.3520    1.0270 C   0  0  0  0  0  0  0  0  0  0  0  0
   -5.0310    1.2540    1.6240 N   0  0  0  0  0  0  0  0  0  0  0  0
   -5.2580    0.0340    1.9530 C   0  0  0  0  0  0  0  0  0  0  0  0
   -6.4400   -0.4730    2.5730 N   0  0  0  0  0  0  0  0  0  0  0  0
   -4.0980   -0.8530    1.5830 C   0  0  0  0  0  0  0  0  0  0  0  0
    0.0160    0.2780   -0.8380 N   0  0  0  0  0  0  0  0  0  0  0  0
    0.6500    1.3330   -0.2760 C   0  0  0  0  0  0  0  0  0  0  0  0
    0.0140    2.3700    0.1230 O   0  0  0  0  0  0  0  0  0  0  0  0
    2.0110    1.4060   -0.0780 C   0  0  0  0  0  0  0  0  0  0  0  0
    2.7500    0.3370   -0.4780 C   0  0  0  0  0  0  0  0  0  0  0  0
    4.2070    0.3100   -0.2460 C   0  0  1  0  0  0  0  0  0  0  0  0
    4.7960    1.6810   -0.0310 C   0  0  0  0  0  0  0  0  0  0  0  0
    5.0400    2.0970    1.3580 C   0  0  0  0  0  0  0  0  0  0  0  0
    5.4840    1.1000    2.2110 O   0  0  0  0  0  0  0  0  0  0  0  0
    5.8180   -0.0660    1.5320 C   0  0  0  0  0  0  0  0  0  0  0  0
    4.4950   -0.5850    0.9460 C   0  0  0  0  0  0  0  0  0  0  0  0
    2.1130   -0.7630   -1.0620 C   0  0  0  0  0  0  0  0  0  0  0  0
    2.8340   -1.8520   -1.4890 C   0  0  0  0  0  0  0  0  0  0  0  0
    2.1960   -2.9450   -2.0780 C   0  0  0  0  0  0  0  0  0  0  0  0
    0.8450   -2.9550   -2.2430 C   0  0  0  0  0  0  0  0  0  0  0  0
    0.0900   -1.8590   -1.8200 C   0  0  0  0  0  0  0  0  0  0  0  0
    0.7330   -0.7930   -1.2430 C   0  0  0  0  0  0  0  0  0  0  0  0
  2  1  1  6
  2  3  1  0
  2 11  1  0
  3  4  1  0
  4  5  1  6
  4  6  1  0
  4 10  1  0
  6  7  1  0
  7  8  2  0
  8  9  1  0
  8 10  1  0
 11 12  1  0
 11 27  1  0
 12 13  2  0
 12 14  1  0
 14 15  2  0
 16 15  1  1
 15 22  1  0
 16 17  1  0
 16 21  1  0
 17 18  1  0
 18 19  1  0
 19 20  1  0
 20 21  1  0
 22 23  2  0
 22 27  1  0
 23 24  1  0
 24 25  2  0
 25 26  1  0
 26 27  2  0
M  CHG  1   7   1
M  END
