
     RDKit          3D

 28 32  0  0  0  0  0  0  0  0999 V2000
   -6.2500   -2.7410   -1.1290 C   0  0  0  0  0  0  0  0  0  0  0  0
   -5.9150   -1.3710   -0.6950 C   0  0  0  0  0  0  0  0  0  0  0  0
   -6.8760   -0.4630   -0.3480 C   0  0  0  0  0  0  0  0  0  0  0  0
   -6.5390    0.8290    0.0610 C   0  0  0  0  0  0  0  0  0  0  0  0
   -5.2260    1.2020    0.1180 C   0  0  0  0  0  0  0  0  0  0  0  0
   -4.2420    0.2620   -0.2410 C   0  0  0  0  0  0  0  0  0  0  0  0
   -4.5620   -1.0040   -0.6410 C   0  0  0  0  0  0  0  0  0  0  0  0
   -3.5430   -1.9830   -1.0450 C   0  0  0  0  0  0  0  0  0  0  0  0
   -2.2250   -1.6030   -0.9330 O   0  0  0  0  0  0  0  0  0  0  0  0
   -1.4980   -1.2820    0.1830 C   0  0  0  0  0  0  0  0  0  0  0  0
   -2.0150   -1.3080    1.4530 C   0  0  0  0  0  0  0  0  0  0  0  0
   -1.2230   -0.9710    2.5260 C   0  0  0  0  0  0  0  0  0  0  0  0
    0.0760   -0.6150    2.2990 C   0  0  0  0  0  0  0  0  0  0  0  0
    0.6330   -0.5790    1.0130 C   0  0  0  0  0  0  0  0  0  0  0  0
    1.9950   -0.2000    0.9440 N   0  0  0  0  0  0  0  0  0  0  0  0
    2.7460    0.0870   -0.2130 C   0  0  0  0  0  0  0  0  0  0  0  0
    2.1830    0.0140   -1.3290 O   0  0  0  0  0  0  0  0  0  0  0  0
    4.1250    0.4580   -0.1670 N   0  0  0  0  0  0  0  0  0  0  0  0
    4.9490    0.6000    1.0040 C   0  0  0  0  0  0  0  0  0  0  0  0
    5.6930    1.9060    0.6960 C   0  0  0  0  0  0  0  0  0  0  0  0
    5.9060    1.7940   -0.7750 C   0  0  1  0  0  0  0  0  0  0  0  0
    7.2660    1.2670   -1.1180 C   0  0  0  0  0  0  0  0  0  0  0  0
    7.1570   -0.1350   -1.3790 N   0  0  0  0  0  0  0  0  0  0  0  0
    5.8000   -0.4290   -1.7270 C   0  0  0  0  0  0  0  0  0  0  0  0
    4.9620    0.7610   -1.3020 C   0  0  1  0  0  0  0  0  0  0  0  0
   -0.1670   -0.9150   -0.0320 C   0  0  0  0  0  0  0  0  0  0  0  0
   -5.5730    2.5560    0.5820 C   0  0  0  0  0  0  0  0  0  0  0  0
   -6.9980    2.1580    0.5210 C   0  0  0  0  0  0  0  0  0  0  0  0
  1  2  1  0
  2  3  2  0
  2  7  1  0
  3  4  1  0
  4  5  2  0
  4 28  1  0
  5  6  1  0
  5 27  1  0
  6  7  2  0
  7  8  1  0
  8  9  1  0
  9 10  1  0
 10 11  2  0
 10 26  1  0
 11 12  1  0
 12 13  2  0
 13 14  1  0
 14 15  1  0
 14 26  2  0
 15 16  1  0
 16 17  2  0
 16 18  1  0
 18 19  1  0
 18 25  1  0
 19 20  1  0
 21 20  1  1
 21 22  1  0
 21 25  1  0
 22 23  1  0
 23 24  1  0
 25 24  1  1
 27 28  1  0
M  CHG  1  23   1
M  END
