
     RDKit          3D

 28 32  0  0  0  0  0  0  0  0999 V2000
    5.8790   -1.1580   -0.1310 C   0  0  0  0  0  0  0  0  0  0  0  0
    5.5940    0.2910   -0.1530 C   0  0  1  0  0  0  0  0  0  0  0  0
    4.9560    0.7760   -1.4360 C   0  0  0  0  0  0  0  0  0  0  0  0
    4.5810    2.1880   -1.0150 C   0  0  0  0  0  0  0  0  0  0  0  0
    4.0260    1.9150    0.3800 C   0  0  1  0  0  0  0  0  0  0  0  0
    2.5510    1.8420    0.2710 C   0  0  0  0  0  0  0  0  0  0  0  0
    1.9530    0.5180    0.3640 C   0  0  0  0  0  0  0  0  0  0  0  0
    0.6960    0.3260   -0.2140 C   0  0  0  0  0  0  0  0  0  0  0  0
    0.1080   -0.9190   -0.1630 C   0  0  0  0  0  0  0  0  0  0  0  0
   -1.1340   -1.2240   -0.7260 N   0  0  0  0  0  0  0  0  0  0  0  0
   -2.2540   -0.3380   -0.8980 C   0  0  0  0  0  0  0  0  0  0  0  0
   -2.0650    0.8220   -0.4440 O   0  0  0  0  0  0  0  0  0  0  0  0
   -3.4880   -0.7950   -1.5570 C   0  0  0  0  0  0  0  0  0  0  0  0
   -4.6780   -0.9860   -0.7490 C   0  0  0  0  0  0  0  0  0  0  0  0
   -5.0200   -2.2990   -0.3440 C   0  0  0  0  0  0  0  0  0  0  0  0
   -6.1160   -2.5710    0.4160 C   0  0  0  0  0  0  0  0  0  0  0  0
   -6.9490   -1.5800    0.8300 C   0  0  0  0  0  0  0  0  0  0  0  0
   -6.6680   -0.2930    0.4680 C   0  0  0  0  0  0  0  0  0  0  0  0
   -5.5490    0.0010   -0.3100 C   0  0  0  0  0  0  0  0  0  0  0  0
   -5.3400    1.2380   -0.6610 C   0  0  0  0  0  0  0  0  0  0  0  0
   -6.1830    2.3950   -0.2680 C   0  0  0  0  0  0  0  0  0  0  0  0
   -7.2470    1.9330    0.5320 O   0  0  0  0  0  0  0  0  0  0  0  0
   -7.4720    0.6330    0.8620 N   0  0  0  0  0  0  0  0  0  0  0  0
    0.7930   -1.9650    0.4760 C   0  0  0  0  0  0  0  0  0  0  0  0
    2.0310   -1.7670    1.0440 C   0  0  0  0  0  0  0  0  0  0  0  0
    2.6230   -0.4970    0.9860 C   0  0  0  0  0  0  0  0  0  0  0  0
    3.9360   -0.1900    1.5520 C   0  0  0  0  0  0  0  0  0  0  0  0
    4.7150    0.7850    0.8810 N   0  0  1  0  0  0  0  0  0  0  0  0
  2  1  1  6
  2  3  1  0
  2 28  1  0
  3  4  1  0
  5  4  1  6
  5  6  1  0
  5 28  1  0
  6  7  1  0
  7  8  2  0
  7 26  1  0
  8  9  1  0
  9 10  1  0
  9 24  2  0
 10 11  1  0
 11 12  2  0
 11 13  1  0
 13 14  1  0
 14 15  2  0
 14 19  1  0
 15 16  1  0
 16 17  2  0
 17 18  1  0
 18 19  1  0
 18 23  2  0
 19 20  2  0
 20 21  1  0
 21 22  1  0
 22 23  1  0
 24 25  1  0
 25 26  2  0
 26 27  1  0
 28 27  1  6
M  CHG  1  28   1
M  END
