
     RDKit          3D

 28 31  0  0  0  0  0  0  0  0999 V2000
    2.6190   -0.5450   -1.9470 C   0  0  0  0  0  0  0  0  0  0  0  0
    3.3760   -0.0210   -0.7700 C   0  0  0  0  0  0  0  0  0  0  0  0
    2.8000    0.6320    0.2820 C   0  0  0  0  0  0  0  0  0  0  0  0
    1.3260    0.8270    0.2980 C   0  0  0  0  0  0  0  0  0  0  0  0
    0.6620   -0.4810    0.7000 C   0  0  1  0  0  0  0  0  0  0  0  0
    1.0960   -0.8990    2.0220 N   0  0  0  0  0  0  0  0  0  0  0  0
   -0.8120   -0.2480    0.6500 C   0  0  0  0  0  0  0  0  0  0  0  0
   -1.4510    0.4580    1.6580 C   0  0  0  0  0  0  0  0  0  0  0  0
   -2.8120    0.6700    1.6080 C   0  0  0  0  0  0  0  0  0  0  0  0
   -3.5790    0.1800    0.5440 C   0  0  0  0  0  0  0  0  0  0  0  0
   -5.0320    0.4420    0.5560 C   0  0  0  0  0  0  0  0  0  0  0  0
   -5.9130    0.1020   -0.2810 N   0  0  0  0  0  0  0  0  0  0  0  0
   -7.1860    0.5370    0.0800 N   0  0  0  0  0  0  0  0  0  0  0  0
   -8.3320    0.6800   -0.7760 C   0  0  0  0  0  0  0  0  0  0  0  0
   -7.1430    0.8240    1.4970 C   0  0  0  0  0  0  0  0  0  0  0  0
   -5.6970    1.2200    1.6500 C   0  0  0  0  0  0  0  0  0  0  0  0
   -2.9380   -0.5190   -0.4510 C   0  0  0  0  0  0  0  0  0  0  0  0
   -3.6740   -1.0560   -1.5870 C   0  0  0  0  0  0  0  0  0  0  0  0
   -3.0020   -1.6910   -2.4650 O   0  0  0  0  0  0  0  0  0  0  0  0
   -1.5550   -0.7350   -0.4000 C   0  0  0  0  0  0  0  0  0  0  0  0
    3.5910    1.1000    1.3400 C   0  0  0  0  0  0  0  0  0  0  0  0
    4.9540    0.9190    1.3510 C   0  0  0  0  0  0  0  0  0  0  0  0
    5.5420    0.2710    0.3130 C   0  0  0  0  0  0  0  0  0  0  0  0
    4.7590   -0.2000   -0.7490 C   0  0  0  0  0  0  0  0  0  0  0  0
    5.4830   -0.8890   -1.8190 C   0  0  0  0  0  0  0  0  0  0  0  0
    6.7310   -0.1270   -2.2090 C   0  0  0  0  0  0  0  0  0  0  0  0
    7.6130    0.1520   -1.0150 C   0  0  0  0  0  0  0  0  0  0  0  0
    6.9090    0.0260    0.2060 O   0  0  0  0  0  0  0  0  0  0  0  0
  1  2  1  0
  2  3  2  0
  2 24  1  0
  3  4  1  0
  3 21  1  0
  4  5  1  0
  5  6  1  1
  5  7  1  0
  7  8  2  0
  7 20  1  0
  8  9  1  0
  9 10  2  0
 10 11  1  0
 10 17  1  0
 11 12  2  0
 11 16  1  0
 12 13  1  0
 13 14  1  0
 13 15  1  0
 15 16  1  0
 17 18  1  0
 17 20  2  0
 18 19  2  0
 21 22  2  0
 22 23  1  0
 23 24  2  0
 23 28  1  0
 24 25  1  0
 25 26  1  0
 26 27  1  0
 27 28  1  0
M  CHG  1   6   1
M  END
