
     RDKit          3D

 28 31  0  0  0  0  0  0  0  0999 V2000
    3.0950   -4.7850   -0.3100 C   0  0  0  0  0  0  0  0  0  0  0  0
    2.6020   -3.4270    0.0230 C   0  0  0  0  0  0  0  0  0  0  0  0
    1.3750   -3.2160    0.5840 C   0  0  0  0  0  0  0  0  0  0  0  0
    0.8860   -1.9210    0.9090 C   0  0  0  0  0  0  0  0  0  0  0  0
    1.6480   -0.8010    0.6660 C   0  0  0  0  0  0  0  0  0  0  0  0
    2.8860   -0.9800    0.1020 C   0  0  0  0  0  0  0  0  0  0  0  0
    3.3300   -2.2990   -0.2050 C   0  0  0  0  0  0  0  0  0  0  0  0
    3.9180   -0.0340   -0.2700 N   0  0  0  0  0  0  0  0  0  0  0  0
    3.7880    1.2880   -0.8660 C   0  0  0  0  0  0  0  0  0  0  0  0
    4.8400    1.6460   -1.5540 O   0  0  0  0  0  0  0  0  0  0  0  0
    2.4870    2.0320   -0.6050 C   0  0  0  0  0  0  0  0  0  0  0  0
    2.2990    2.8640    0.4810 C   0  0  0  0  0  0  0  0  0  0  0  0
    1.0740    3.5300    0.7290 C   0  0  0  0  0  0  0  0  0  0  0  0
   -0.0600    3.4360   -0.0630 C   0  0  0  0  0  0  0  0  0  0  0  0
    0.1540    2.5940   -1.1410 C   0  0  0  0  0  0  0  0  0  0  0  0
    1.3710    1.9160   -1.4110 C   0  0  0  0  0  0  0  0  0  0  0  0
   -1.3480    4.1230    0.2240 C   0  0  0  0  0  0  0  0  0  0  0  0
   -1.7760    5.3130   -0.1580 O   0  0  0  0  0  0  0  0  0  0  0  0
   -2.3820    3.5000    1.0380 N   0  0  0  0  0  0  0  0  0  0  0  0
   -3.0050    2.2510    0.8690 C   0  0  2  0  0  0  0  0  0  0  0  0
   -2.1170    1.0470    1.1860 C   0  0  0  0  0  0  0  0  0  0  0  0
   -2.3200    0.1480    0.2650 C   0  0  0  0  0  0  0  0  0  0  0  0
   -3.7750    0.3970   -0.1680 C   0  0  0  0  0  0  0  0  0  0  0  0
   -3.5720    1.9020   -0.4470 C   0  0  0  0  0  0  0  0  0  0  0  0
   -1.4510   -0.9040   -0.3150 C   0  0  2  0  0  0  0  0  0  0  0  0
   -1.9880   -1.3360   -1.6970 C   0  0  0  0  0  0  0  0  0  0  0  0
   -1.4900   -2.1370    0.4440 N   0  0  0  0  0  0  0  0  0  0  0  0
   -0.4900   -2.0510    1.4940 C   0  0  0  0  0  0  0  0  0  0  0  0
  1  2  1  0
  2  3  1  0
  2  7  2  0
  3  4  2  0
  4  5  1  0
  4 28  1  0
  5  6  2  0
  6  7  1  0
  6  8  1  0
  8  9  1  0
  9 10  2  0
  9 11  1  0
 11 12  2  0
 11 16  1  0
 12 13  1  0
 13 14  2  0
 14 15  1  0
 14 17  1  0
 15 16  2  0
 17 18  2  0
 17 19  1  0
 19 20  1  0
 20 21  1  0
 20 24  1  6
 21 22  2  0
 22 23  1  0
 22 25  1  0
 23 24  1  0
 25 26  1  6
 25 27  1  0
 27 28  1  0
M  CHG  1  27   1
M  END
