
     RDKit          3D

 28 30  0  0  0  0  0  0  0  0999 V2000
   -2.2020    4.4170    0.9030 C   0  0  0  0  0  0  0  0  0  0  0  0
   -3.1820    3.6210    0.5790 C   0  0  0  0  0  0  0  0  0  0  0  0
   -2.8800    2.3060   -0.0440 C   0  0  0  0  0  0  0  0  0  0  0  0
   -3.9000    1.5260   -0.3510 C   0  0  0  0  0  0  0  0  0  0  0  0
   -4.0060    0.2490   -0.9270 N   0  0  0  0  0  0  0  0  0  0  0  0
   -4.1040   -1.0700   -0.4310 C   0  0  0  0  0  0  0  0  0  0  0  0
   -3.3590   -1.8610    0.2710 C   0  0  0  0  0  0  0  0  0  0  0  0
   -2.0830   -1.9160    0.9220 C   0  0  0  0  0  0  0  0  0  0  0  0
   -1.9810   -1.8330    2.2760 C   0  0  0  0  0  0  0  0  0  0  0  0
   -3.1510   -1.6880    3.1300 C   0  0  0  0  0  0  0  0  0  0  0  0
   -0.7420   -2.1120    0.2470 C   0  0  1  0  0  0  0  0  0  0  0  0
   -0.6940   -2.9320   -0.9680 C   0  0  1  0  0  0  0  0  0  0  0  0
   -1.1610   -4.4180   -0.7520 C   0  0  0  0  0  0  0  0  0  0  0  0
   -1.8400   -3.5220   -1.7200 C   0  0  0  0  0  0  0  0  0  0  0  0
    0.0240   -0.8560    0.3230 C   0  0  0  0  0  0  0  0  0  0  0  0
    0.8090   -0.4530   -0.9000 C   0  0  2  0  0  0  0  0  0  0  0  0
    2.2180   -0.6910   -0.6130 C   0  0  0  0  0  0  0  0  0  0  0  0
    2.4500   -1.9600   -0.3230 O   0  0  0  0  0  0  0  0  0  0  0  0
    3.2990    0.1790   -0.5990 N   0  0  0  0  0  0  0  0  0  0  0  0
    3.2670    1.5820   -0.8770 C   0  0  0  0  0  0  0  0  0  0  0  0
    4.7580    2.0480   -0.9290 C   0  0  0  0  0  0  0  0  0  0  0  0
    5.2580    1.8790    0.5070 C   0  0  1  0  0  0  0  0  0  0  0  0
    4.3040    2.4680    1.3330 O   0  0  0  0  0  0  0  0  0  0  0  0
    5.2960    0.3950    0.8370 C   0  0  0  0  0  0  0  0  0  0  0  0
    4.6210   -0.4080   -0.2560 C   0  0  0  0  0  0  0  0  0  0  0  0
    0.4250    0.8780   -1.2600 N   0  0  0  0  0  0  0  0  0  0  0  0
   -1.0520    1.0230   -1.2200 C   0  0  0  0  0  0  0  0  0  0  0  0
   -1.4420    2.1020   -0.2750 C   0  0  0  0  0  0  0  0  0  0  0  0
  1  2  2  0
  2  3  1  0
  3  4  2  0
  3 28  1  0
  4  5  1  0
  5  6  1  0
  6  7  2  0
  7  8  1  0
  8  9  2  3
  8 11  1  0
  9 10  1  0
 11 12  1  0
 11 15  1  6
 12 13  1  1
 12 14  1  0
 13 14  1  0
 15 16  1  0
 16 17  1  1
 16 26  1  0
 17 18  2  0
 17 19  1  0
 19 20  1  0
 19 25  1  0
 20 21  1  0
 21 22  1  0
 22 23  1  1
 22 24  1  0
 24 25  1  0
 26 27  1  0
 27 28  1  0
M  CHG  1  26   1
M  END
