
     RDKit          3D

 28 31  0  0  0  0  0  0  0  0999 V2000
   -6.5990    1.6950   -0.0670 C   0  0  0  0  0  0  0  0  0  0  0  0
   -5.4200    0.8000   -0.0730 C   0  0  0  0  0  0  0  0  0  0  0  0
   -4.2140    1.2450    0.4280 C   0  0  0  0  0  0  0  0  0  0  0  0
   -3.0820    0.4320    0.4390 C   0  0  0  0  0  0  0  0  0  0  0  0
   -1.8520    0.9180    0.9610 N   0  0  0  0  0  0  0  0  0  0  0  0
   -1.8290    1.1290    2.4040 C   0  0  0  0  0  0  0  0  0  0  0  0
   -0.4300    1.1120    2.9110 C   0  0  0  0  0  0  0  0  0  0  0  0
    0.5660    1.8960    2.1490 C   0  0  0  0  0  0  0  0  0  0  0  0
    0.4810    1.9110    0.6750 C   0  0  1  0  0  0  0  0  0  0  0  0
    1.7340    1.5080   -0.0680 C   0  0  2  0  0  0  0  0  0  0  0  0
    1.5610    1.5960   -1.5000 N   0  0  0  0  0  0  0  0  0  0  0  0
    2.2500    0.1790    0.2680 C   0  0  0  0  0  0  0  0  0  0  0  0
    1.8300   -0.3520    1.3460 O   0  0  0  0  0  0  0  0  0  0  0  0
    3.1710   -0.6110   -0.4530 N   0  0  0  0  0  0  0  0  0  0  0  0
    3.5130   -1.9720    0.0250 C   0  0  0  0  0  0  0  0  0  0  0  0
    4.9310   -1.9150    0.5320 C   0  0  0  0  0  0  0  0  0  0  0  0
    5.8260   -1.2750   -0.4800 C   0  0  2  0  0  0  0  0  0  0  0  0
    6.2450    0.1240   -0.0740 C   0  0  0  0  0  0  0  0  0  0  0  0
    5.0920   -1.1640   -1.7890 C   0  0  0  0  0  0  0  0  0  0  0  0
    3.8830   -0.2150   -1.6450 C   0  0  0  0  0  0  0  0  0  0  0  0
   -0.7200    1.1890    0.1470 C   0  0  0  0  0  0  0  0  0  0  0  0
   -0.7870    0.7860   -1.0420 O   0  0  0  0  0  0  0  0  0  0  0  0
   -3.2240   -0.8360   -0.0720 C   0  0  0  0  0  0  0  0  0  0  0  0
   -2.0070   -1.7150   -0.0620 C   0  0  0  0  0  0  0  0  0  0  0  0
   -4.4270   -1.3210   -0.5870 C   0  0  0  0  0  0  0  0  0  0  0  0
   -5.5140   -0.4840   -0.5770 C   0  0  0  0  0  0  0  0  0  0  0  0
   -6.3400   -1.5710   -1.2090 C   0  0  0  0  0  0  0  0  0  0  0  0
   -5.1380   -2.4750   -1.2140 C   0  0  0  0  0  0  0  0  0  0  0  0
  1  2  1  0
  2  3  2  0
  2 26  1  0
  3  4  1  0
  4  5  1  0
  4 23  2  0
  5  6  1  0
  5 21  1  0
  6  7  1  0
  7  8  1  0
  9  8  1  1
  9 10  1  0
  9 21  1  0
 10 11  1  6
 10 12  1  0
 12 13  2  0
 12 14  1  0
 14 15  1  0
 14 20  1  0
 15 16  1  0
 16 17  1  0
 17 18  1  1
 17 19  1  0
 19 20  1  0
 21 22  2  0
 23 24  1  0
 23 25  1  0
 25 26  2  0
 25 28  1  0
 26 27  1  0
 27 28  1  0
M  CHG  1  11   1
M  END
