
     RDKit          3D

 34 37  0  0  0  0  0  0  0  0999 V2000
    5.1890   -2.4800    1.0650 C   0  0  0  0  0  0  0  0  0  0  0  0
    4.3120   -1.6980    0.4800 C   0  0  0  0  0  0  0  0  0  0  0  0
    2.9420   -1.4480    0.9380 C   0  0  0  0  0  0  0  0  0  0  0  0
    2.2750   -0.6490   -0.1200 C   0  0  0  0  0  0  0  0  0  0  0  0
    0.8430   -0.2950   -0.0470 C   0  0  0  0  0  0  0  0  0  0  0  0
    0.0950   -0.6530    0.9270 N   0  0  0  0  0  0  0  0  0  0  0  0
   -1.2820   -0.3450    1.0530 C   0  0  0  0  0  0  0  0  0  0  0  0
   -1.9870   -0.7120    2.0230 O   0  0  0  0  0  0  0  0  0  0  0  0
   -1.9100    0.4230    0.0300 N   0  0  0  0  0  0  0  0  0  0  0  0
   -1.1300    0.8450   -1.0700 C   0  0  0  0  0  0  0  0  0  0  0  0
   -1.6390    1.5500   -2.0580 C   0  0  0  0  0  0  0  0  0  0  0  0
   -0.8350    1.9340   -3.1010 O   0  0  0  0  0  0  0  0  0  0  0  0
   -0.8040    3.2340   -3.4400 O   0  0  0  0  0  0  0  0  0  0  0  0
   -0.0580    3.9390   -2.6170 O   0  0  0  0  0  0  0  0  0  0  0  0
   -1.0430    4.8490   -1.5080 P   0  0  0  0  0  0  0  0  0  0  0  0
   -0.9180    6.4000   -1.4900 O   0  0  0  0  0  0  0  0  0  0  0  0
   -3.0020    1.8590   -1.9600 O   0  0  0  0  0  0  0  0  0  0  0  0
   -3.8680    0.9450   -1.2560 C   0  0  0  0  0  0  0  0  0  0  0  0
   -3.2970    0.7700    0.1140 C   0  0  1  0  0  0  0  0  0  0  0  0
   -4.0410   -0.2000    0.8980 N   0  0  0  0  0  0  0  0  0  0  0  0
   -4.1920   -1.5950    0.6250 C   0  0  0  0  0  0  0  0  0  0  0  0
   -3.7020   -2.2110   -0.3540 O   0  0  0  0  0  0  0  0  0  0  0  0
   -5.0220   -2.2420    1.6690 C   0  0  0  0  0  0  0  0  0  0  0  0
   -5.3600   -1.1470    2.5690 N   0  0  0  0  0  0  0  0  0  0  0  0
   -4.7650    0.0520    2.0940 C   0  0  0  0  0  0  0  0  0  0  0  0
   -4.8710    1.1680    2.6600 O   0  0  0  0  0  0  0  0  0  0  0  0
    0.2470    0.4730   -1.0850 N   0  0  0  0  0  0  0  0  0  0  0  0
    3.1410   -0.3500   -1.0490 C   0  0  0  0  0  0  0  0  0  0  0  0
    4.4880   -0.8910   -0.7590 C   0  0  1  0  0  0  0  0  0  0  0  0
    5.3430    0.1800   -0.5710 O   0  0  0  0  0  0  0  0  0  0  0  0
    6.3790    0.1660   -1.3610 O   0  0  0  0  0  0  0  0  0  0  0  0
    7.4660    0.5950   -0.7510 O   0  0  0  0  0  0  0  0  0  0  0  0
    7.1490    0.9920    0.9070 P   0  0  0  0  0  0  0  0  0  0  0  0
    7.3440   -0.1530    1.9590 O   0  0  0  0  0  0  0  0  0  0  0  0
  1  2  2  0
  2  3  1  0
  2 29  1  0
  3  4  1  0
  4  5  1  0
  4 28  2  0
  5  6  2  0
  5 27  1  0
  6  7  1  0
  7  8  2  0
  7  9  1  0
  9 10  1  0
  9 19  1  0
 10 11  2  0
 10 27  1  0
 11 12  1  0
 11 17  1  0
 12 13  1  0
 13 14  1  0
 14 15  1  0
 15 16  2  0
 17 18  1  0
 18 19  1  0
 19 20  1  6
 20 21  1  0
 20 25  1  0
 21 22  2  0
 21 23  1  0
 23 24  1  0
 24 25  1  0
 25 26  2  0
 28 29  1  0
 29 30  1  1
 30 31  1  0
 31 32  1  0
 32 33  1  0
 33 34  2  0
M  END
