
     RDKit          3D

 34 36  0  0  0  0  0  0  0  0999 V2000
    6.3580   -1.6970    1.7400 O   0  0  0  0  0  0  0  0  0  0  0  0
    5.5020   -1.4210    0.4420 P   0  0  0  0  0  0  0  0  0  0  0  0
    5.6750    0.2310   -0.3140 C   0  0  2  0  0  0  0  0  0  0  0  0
    4.7000    0.6240   -1.3940 C   0  0  0  0  0  0  0  0  0  0  0  0
    3.3760    0.7600   -0.8420 N   0  0  0  0  0  0  0  0  0  0  0  0
    3.0250    1.9300   -0.0170 C   0  0  0  0  0  0  0  0  0  0  0  0
    3.8070    2.8690    0.2650 O   0  0  0  0  0  0  0  0  0  0  0  0
    1.6890    1.7920    0.3840 N   0  0  0  0  0  0  0  0  0  0  0  0
    0.6610    2.7120    0.8230 C   0  0  0  0  0  0  0  0  0  0  0  0
   -0.6660    2.3390    0.2510 C   0  0  0  0  0  0  0  0  0  0  0  0
   -1.5760    3.2050    0.2430 O   0  0  0  0  0  0  0  0  0  0  0  0
   -0.8530    1.0610   -0.2430 O   0  0  0  0  0  0  0  0  0  0  0  0
    0.0030    0.0590    0.2140 C   0  0  2  0  0  0  0  0  0  0  0  0
   -0.2300   -1.3210   -0.3000 C   0  0  0  0  0  0  0  0  0  0  0  0
   -1.4970   -1.9550    0.1730 C   0  0  0  0  0  0  0  0  0  0  0  0
   -2.6620   -1.3860   -0.3330 O   0  0  0  0  0  0  0  0  0  0  0  0
   -3.6810   -0.9300    0.3570 C   0  0  0  0  0  0  0  0  0  0  0  0
   -3.8200   -0.8720    1.5890 O   0  0  0  0  0  0  0  0  0  0  0  0
   -4.9260   -0.3900   -0.3570 C   0  0  0  0  0  0  0  0  0  0  0  0
   -5.9590   -1.4600    0.0320 C   0  0  1  0  0  0  0  0  0  0  0  0
   -6.0770   -1.5360    1.3890 O   0  0  0  0  0  0  0  0  0  0  0  0
   -7.2830   -0.9710   -0.6250 C   0  0  0  0  0  0  0  0  0  0  0  0
   -7.5670    0.0950    0.2420 O   0  0  0  0  0  0  0  0  0  0  0  0
   -7.7350    1.2270   -0.4190 O   0  0  0  0  0  0  0  0  0  0  0  0
   -0.3040   -0.0310    1.7560 C   0  0  0  0  0  0  0  0  0  0  0  0
   -1.2520    0.5590    2.2710 O   0  0  0  0  0  0  0  0  0  0  0  0
    0.7340   -0.8090    2.1770 O   0  0  0  0  0  0  0  0  0  0  0  0
    1.9260   -0.4440    1.4640 C   0  0  0  0  0  0  0  0  0  0  0  0
    1.4330    0.3720    0.3090 C   0  0  2  0  0  0  0  0  0  0  0  0
    2.2010   -0.0020   -0.9140 C   0  0  0  0  0  0  0  0  0  0  0  0
    1.9290   -0.8020   -1.8410 O   0  0  0  0  0  0  0  0  0  0  0  0
    7.4100    0.6420   -0.7280 P   0  0  0  0  0  0  0  0  0  0  0  0
    7.4980    1.9880   -1.8430 O   0  0  0  0  0  0  0  0  0  0  0  0
    8.1810   -0.7620   -1.4170 O   0  0  0  0  0  0  0  0  0  0  0  0
  1  2  2  0
  2  3  1  0
  3  4  1  6
  3 32  1  0
  4  5  1  0
  5  6  1  0
  5 30  1  0
  6  7  2  0
  6  8  1  0
  8  9  1  0
  8 29  1  0
  9 10  1  0
 10 11  2  0
 10 12  1  0
 12 13  1  0
 13 14  1  6
 13 25  1  0
 13 29  1  0
 14 15  1  0
 15 16  1  0
 16 17  1  0
 17 18  2  0
 17 19  1  0
 19 20  1  0
 20 21  1  1
 20 22  1  0
 22 23  1  0
 23 24  1  0
 25 26  2  0
 25 27  1  0
 27 28  1  0
 29 28  1  1
 29 30  1  0
 30 31  2  0
 32 33  1  0
 32 34  1  0
M  END
