
     RDKit          3D

 34 34  0  0  0  0  0  0  0  0999 V2000
    5.1240    2.3020   -0.3890 C   0  0  0  0  0  0  0  0  0  0  0  0
    4.3700    1.1420    0.2050 C   0  0  0  0  0  0  0  0  0  0  0  0
    4.6560    0.8280    1.3380 O   0  0  0  0  0  0  0  0  0  0  0  0
    3.3560    0.5020   -0.6530 C   0  0  1  0  0  0  0  0  0  0  0  0
    3.9700   -0.1640   -1.8510 C   0  0  0  0  0  0  0  0  0  0  0  0
    4.9260   -1.2530   -1.4810 C   0  0  0  0  0  0  0  0  0  0  0  0
    6.3310   -0.5910   -0.5220 P   0  0  0  0  0  0  0  0  0  0  0  0
    7.7200   -0.0800   -1.4960 N   0  0  0  0  0  0  0  0  0  0  0  0
    6.7720   -1.5410    0.8520 O   0  0  0  0  0  0  0  0  0  0  0  0
    2.2030   -0.5460    0.2160 S   0  0  0  0  0  0  0  0  0  0  0  0
    0.9790    0.3260    1.2320 C   0  0  1  0  0  0  0  0  0  0  0  0
    1.7810    1.0640    2.3260 C   0  0  0  0  0  0  0  0  0  0  0  0
    0.3450    1.3380    0.5320 O   0  0  0  0  0  0  0  0  0  0  0  0
   -0.1440    0.9330   -0.7010 C   0  0  0  0  0  0  0  0  0  0  0  0
   -1.4780    1.3270   -0.8650 O   0  0  0  0  0  0  0  0  0  0  0  0
   -1.8370    0.9060   -2.1020 N   0  0  0  0  0  0  0  0  0  0  0  0
   -2.6600    1.7160   -2.7580 O   0  0  0  0  0  0  0  0  0  0  0  0
   -2.1230    2.9330   -2.9610 N   0  0  0  0  0  0  0  0  0  0  0  0
   -2.2870   -0.3830   -2.0710 O   0  0  0  0  0  0  0  0  0  0  0  0
   -3.4440   -0.5260   -1.4850 N   0  0  0  0  0  0  0  0  0  0  0  0
   -4.5950   -0.3800   -2.1970 N   0  0  0  0  0  0  0  0  0  0  0  0
   -5.0230   -1.2690   -3.2670 C   0  0  0  0  0  0  0  0  0  0  0  0
   -5.4670    0.7210   -1.8880 C   0  0  0  0  0  0  0  0  0  0  0  0
   -5.1710    1.5390   -0.9680 O   0  0  0  0  0  0  0  0  0  0  0  0
   -3.5250   -0.5170   -0.0760 C   0  0  0  0  0  0  0  0  0  0  0  0
   -2.5940   -1.4500    0.6230 C   0  0  0  0  0  0  0  0  0  0  0  0
   -2.2960   -0.8930    1.9280 N   0  0  0  0  0  0  0  0  0  0  0  0
   -3.4140   -0.4640    2.7230 C   0  0  0  0  0  0  0  0  0  0  0  0
   -4.0340   -1.5560    3.5620 C   0  0  0  0  0  0  0  0  0  0  0  0
   -3.0930   -2.0590    4.4400 O   0  0  0  0  0  0  0  0  0  0  0  0
   -3.6330   -3.0080    5.1690 O   0  0  0  0  0  0  0  0  0  0  0  0
   -0.9700   -0.7850    2.4480 C   0  0  0  0  0  0  0  0  0  0  0  0
   -0.9710   -0.8540    3.7380 O   0  0  0  0  0  0  0  0  0  0  0  0
    0.1550   -0.6370    1.7660 O   0  0  0  0  0  0  0  0  0  0  0  0
  1  2  1  0
  2  3  2  0
  2  4  1  0
  4  5  1  6
  4 10  1  0
  5  6  1  0
  6  7  1  0
  7  8  1  0
  7  9  1  0
 10 11  1  0
 11 12  1  1
 11 13  1  0
 11 34  1  0
 13 14  1  0
 14 15  1  0
 15 16  1  0
 16 17  1  0
 16 19  1  0
 17 18  1  0
 19 20  1  0
 20 21  1  0
 20 25  1  0
 21 22  1  0
 21 23  1  0
 23 24  2  0
 25 26  1  0
 26 27  1  0
 27 28  1  0
 27 32  1  0
 28 29  1  0
 29 30  1  0
 30 31  1  0
 32 33  2  0
 32 34  1  0
M  END
