
     RDKit          3D

 34 37  0  0  0  0  0  0  0  0999 V2000
    5.1800    0.3570    0.5050 C   0  0  0  0  0  0  0  0  0  0  0  0
    3.8100    0.8340    0.8170 N   0  0  0  0  0  0  0  0  0  0  0  0
    3.6550    1.7220    1.9070 C   0  0  0  0  0  0  0  0  0  0  0  0
    4.3800    2.8230    1.8340 O   0  0  0  0  0  0  0  0  0  0  0  0
    2.8480    1.6500    3.0970 C   0  0  0  0  0  0  0  0  0  0  0  0
    1.3670    1.8510    2.9610 C   0  0  0  0  0  0  0  0  0  0  0  0
    1.0870    3.0410    3.1350 O   0  0  0  0  0  0  0  0  0  0  0  0
    0.4040    0.2990    2.5900 P   0  0  0  0  0  0  0  0  0  0  0  0
    1.4980   -0.9140    3.0220 O   0  0  0  0  0  0  0  0  0  0  0  0
    1.5390   -2.0350    2.4250 N   0  0  0  0  0  0  0  0  0  0  0  0
    0.7630   -2.4480    1.3960 C   0  0  0  0  0  0  0  0  0  0  0  0
   -0.2250   -1.6260    0.8690 C   0  0  0  0  0  0  0  0  0  0  0  0
   -0.5130   -0.3370    1.3160 N   0  0  0  0  0  0  0  0  0  0  0  0
   -1.6960    0.2660    0.7010 C   0  0  0  0  0  0  0  0  0  0  0  0
   -2.0290    1.4640    1.0790 O   0  0  0  0  0  0  0  0  0  0  0  0
   -2.5620   -0.2710   -0.2620 N   0  0  0  0  0  0  0  0  0  0  0  0
   -3.3790    0.5050   -1.1130 C   0  0  2  0  0  0  0  0  0  0  0  0
   -2.5510    1.4110   -2.0350 C   0  0  0  0  0  0  0  0  0  0  0  0
   -1.7590    2.3010   -1.3570 O   0  0  0  0  0  0  0  0  0  0  0  0
   -4.3740    1.3730   -0.3750 C   0  0  0  0  0  0  0  0  0  0  0  0
   -5.6770    1.2040   -1.0930 C   0  0  0  0  0  0  0  0  0  0  0  0
   -5.5630   -0.1100   -1.7360 N   0  0  0  0  0  0  0  0  0  0  0  0
   -4.1910   -0.3260   -2.0290 C   0  0  0  0  0  0  0  0  0  0  0  0
   -3.7610   -1.0860   -2.9090 O   0  0  0  0  0  0  0  0  0  0  0  0
   -2.4810   -1.7280   -0.2630 C   0  0  0  0  0  0  0  0  0  0  0  0
   -1.1050   -1.9770   -0.2280 O   0  0  0  0  0  0  0  0  0  0  0  0
    1.1480   -3.7930    0.8710 C   0  0  0  0  0  0  0  0  0  0  0  0
    2.2670   -3.8000   -0.0080 O   0  0  0  0  0  0  0  0  0  0  0  0
    2.8780   -2.6090   -0.4950 C   0  0  0  0  0  0  0  0  0  0  0  0
    3.9680   -2.9410   -1.1160 O   0  0  0  0  0  0  0  0  0  0  0  0
    2.3390   -1.4370   -0.2910 O   0  0  0  0  0  0  0  0  0  0  0  0
    2.5300    0.2340   -0.2550 P   0  0  0  0  0  0  0  0  0  0  0  0
    2.7480    1.1150   -2.2410 P   0  0  0  0  0  0  0  0  0  0  0  0
    3.6070    2.6150   -2.2200 O   0  0  0  0  0  0  0  0  0  0  0  0
  1  2  1  0
  2  3  1  0
  2 32  1  0
  3  4  2  0
  3  5  1  0
  5  6  1  0
  6  7  2  0
  6  8  1  0
  8  9  1  0
  8 13  1  0
  9 10  1  0
 10 11  1  0
 11 12  2  0
 11 27  1  0
 12 13  1  0
 12 26  1  0
 13 14  1  0
 14 15  2  0
 14 16  1  0
 16 17  1  0
 16 25  1  0
 17 18  1  6
 17 20  1  0
 17 23  1  0
 18 19  1  0
 20 21  1  0
 21 22  1  0
 22 23  1  0
 23 24  2  0
 25 26  1  0
 27 28  1  0
 28 29  1  0
 29 30  2  0
 29 31  1  0
 31 32  1  0
 32 33  1  0
 33 34  1  0
M  END
