
     RDKit          3D

 24 26  0  0  0  0  0  0  0  0999 V2000
   -3.8660    0.4500   -0.4570 C   0  0  0  0  0  0  0  0  0  0  0  0
   -3.9320   -0.1710    0.9090 C   0  0  0  0  0  0  0  0  0  0  0  0
   -3.5560   -1.6310    0.9010 C   0  0  0  0  0  0  0  0  0  0  0  0
   -2.1640   -1.8080    0.3980 C   0  0  0  0  0  0  0  0  0  0  0  0
   -1.1230   -1.0340    1.2440 C   0  0  2  0  0  0  0  0  0  0  0  0
    0.2010   -1.3440    0.5910 C   0  0  0  0  0  0  0  0  0  0  0  0
    1.3360   -1.1700    1.4280 N   0  0  1  0  0  0  0  0  0  0  0  0
    2.4190   -0.3970    0.9540 C   0  0  0  0  0  0  0  0  0  0  0  0
    2.1890    0.3970   -0.2840 C   0  0  0  0  0  0  0  0  0  0  0  0
    2.9410    0.0630   -1.3240 C   0  0  0  0  0  0  0  0  0  0  0  0
    3.9160   -1.0050   -1.2200 N   0  0  0  0  0  0  0  0  0  0  0  0
    2.7090    0.7440   -2.5720 C   0  0  0  0  0  0  0  0  0  0  0  0
    3.4640    0.4760   -3.7510 C   0  0  0  0  0  0  0  0  0  0  0  0
    4.1010    0.2550   -4.7140 N   0  0  0  0  0  0  0  0  0  0  0  0
    1.7450    1.6730   -2.6290 C   0  0  0  0  0  0  0  0  0  0  0  0
    1.2070    2.7030   -4.0230 S   0  0  0  0  0  0  0  0  0  0  0  0
    0.1430    3.7980   -2.9970 C   0  0  0  0  0  0  0  0  0  0  0  0
   -0.2270    2.8140   -1.9380 C   0  0  0  0  0  0  0  0  0  0  0  0
   -1.3710    2.7250   -1.4670 O   0  0  0  0  0  0  0  0  0  0  0  0
    0.9040    2.0130   -1.5610 N   0  0  0  0  0  0  0  0  0  0  0  0
    1.2460    1.5230   -0.2240 C   0  0  0  0  0  0  0  0  0  0  0  0
    1.0000   -0.7150    2.7760 C   0  0  0  0  0  0  0  0  0  0  0  0
   -0.1620   -1.4960    3.3330 C   0  0  0  0  0  0  0  0  0  0  0  0
   -1.2130   -1.5910    2.4840 O   0  0  0  0  0  0  0  0  0  0  0  0
  1  2  1  0
  2  3  1  0
  3  4  1  0
  5  4  1  6
  5  6  1  0
  5 24  1  0
  6  7  1  0
  7  8  1  6
  7 22  1  0
  8  9  1  0
  9 10  2  0
  9 21  1  0
 10 11  1  0
 10 12  1  0
 12 13  1  0
 12 15  2  0
 13 14  3  0
 15 16  1  0
 15 20  1  0
 16 17  1  0
 17 18  1  0
 18 19  2  0
 18 20  1  0
 20 21  1  0
 22 23  1  0
 23 24  1  0
M  CHG  1   7   1
M  END
