
     RDKit          3D

 24 26  0  0  0  0  0  0  0  0999 V2000
   -6.5170   -2.2480    0.9340 C   0  0  0  0  0  0  0  0  0  0  0  0
   -5.7430   -0.9630    1.0920 C   0  0  0  0  0  0  0  0  0  0  0  0
   -5.1630   -0.4920   -0.2270 C   0  0  0  0  0  0  0  0  0  0  0  0
   -4.4470    0.7410    0.0440 N   0  0  0  0  0  0  0  0  0  0  0  0
   -5.0250    2.0110   -0.0200 C   0  0  0  0  0  0  0  0  0  0  0  0
   -6.2640    2.0540   -0.3550 O   0  0  0  0  0  0  0  0  0  0  0  0
   -4.4340    3.2210    0.2310 O   0  0  0  0  0  0  0  0  0  0  0  0
   -5.1070    4.4630    0.1400 C   0  0  0  0  0  0  0  0  0  0  0  0
   -3.0500    0.5520    0.3970 C   0  0  0  0  0  0  0  0  0  0  0  0
   -2.3140    0.4420    1.2750 N   0  0  0  0  0  0  0  0  0  0  0  0
   -1.0240    0.2730    1.1760 N   0  0  0  0  0  0  0  0  0  0  0  0
   -0.4060    0.2060    0.1830 C   0  0  0  0  0  0  0  0  0  0  0  0
    0.9120    0.0290   -0.4420 C   0  0  2  0  0  0  0  0  0  0  0  0
    1.2620   -1.4460   -0.3870 C   0  0  0  0  0  0  0  0  0  0  0  0
    2.5540   -1.6400   -1.1130 C   0  0  0  0  0  0  0  0  0  0  0  0
    3.3560   -0.3490   -1.1660 C   0  0  2  0  0  0  0  0  0  0  0  0
    4.7550   -0.6500   -1.5810 C   0  0  0  0  0  0  0  0  0  0  0  0
    5.6250   -1.1810   -0.4830 C   0  0  0  0  0  0  0  0  0  0  0  0
    6.0100   -0.1060    0.5050 C   0  0  0  0  0  0  0  0  0  0  0  0
    5.1140   -0.1880    1.7100 C   0  0  0  0  0  0  0  0  0  0  0  0
    3.6740   -0.4830    1.3120 C   0  0  0  0  0  0  0  0  0  0  0  0
    3.2310    0.3520    0.1540 C   0  0  2  0  0  0  0  0  0  0  0  0
    1.8610    0.8090    0.3220 N   0  0  0  0  0  0  0  0  0  0  0  0
   -1.8270    0.4110   -1.0540 S   0  0  0  0  0  0  0  0  0  0  0  0
  1  2  1  0
  2  3  1  0
  3  4  1  0
  4  5  1  0
  4  9  1  0
  5  6  2  0
  5  7  1  0
  7  8  1  0
  9 10  2  0
  9 24  1  0
 10 11  1  0
 11 12  2  0
 13 12  1  1
 12 24  1  0
 13 14  1  0
 13 23  1  0
 14 15  1  0
 16 15  1  1
 16 17  1  0
 16 22  1  0
 17 18  1  0
 18 19  1  0
 19 20  1  0
 20 21  1  0
 22 21  1  1
 22 23  1  0
M  CHG  1  23   1
M  END
