
     RDKit          3D

 24 26  0  0  0  0  0  0  0  0999 V2000
    7.8740   -1.1750    2.1530 C   0  0  0  0  0  0  0  0  0  0  0  0
    7.0160   -0.8470    0.9860 C   0  0  0  0  0  0  0  0  0  0  0  0
    7.4580   -0.8520   -0.2800 N   0  0  0  0  0  0  0  0  0  0  0  0
    6.3830   -0.5030   -1.0400 C   0  0  0  0  0  0  0  0  0  0  0  0
    6.4660   -0.3970   -2.5060 C   0  0  0  0  0  0  0  0  0  0  0  0
    5.3190   -0.2960   -0.2100 C   0  0  0  0  0  0  0  0  0  0  0  0
    3.9810    0.0890   -0.5920 C   0  0  0  0  0  0  0  0  0  0  0  0
    3.6520    0.2810   -1.8130 O   0  0  0  0  0  0  0  0  0  0  0  0
    2.9280    0.2870    0.3350 N   0  0  0  0  0  0  0  0  0  0  0  0
    1.6140    0.6670   -0.0680 C   0  0  0  0  0  0  0  0  0  0  0  0
    0.4930    0.9130    0.5130 N   0  0  0  0  0  0  0  0  0  0  0  0
   -0.5820    1.2430   -0.0350 C   0  0  0  0  0  0  0  0  0  0  0  0
   -1.8860    1.5210    0.7100 C   0  0  0  0  0  0  0  0  0  0  0  0
   -2.6430    0.3230    0.8610 N   0  0  1  0  0  0  0  0  0  0  0  0
   -3.7840    0.5820    1.6750 C   0  0  0  0  0  0  0  0  0  0  0  0
   -5.0900    0.6140    0.9390 C   0  0  1  0  0  0  0  0  0  0  0  0
   -5.2950    1.9230    0.1960 C   0  0  0  0  0  0  0  0  0  0  0  0
   -5.3300   -0.5780    0.0670 C   0  0  0  0  0  0  0  0  0  0  0  0
   -4.0530   -1.3310   -0.1110 C   0  0  1  0  0  0  0  0  0  0  0  0
   -4.1900   -2.3510   -1.2030 C   0  0  0  0  0  0  0  0  0  0  0  0
   -2.9400   -0.3380   -0.3870 C   0  0  0  0  0  0  0  0  0  0  0  0
   -0.6250    1.3740   -1.4320 C   0  0  0  0  0  0  0  0  0  0  0  0
    1.1230    0.9440   -1.7870 S   0  0  0  0  0  0  0  0  0  0  0  0
    5.7380   -0.5130    1.0060 O   0  0  0  0  0  0  0  0  0  0  0  0
  1  2  1  0
  2  3  2  0
  2 24  1  0
  3  4  1  0
  4  5  1  0
  4  6  2  0
  6  7  1  0
  6 24  1  0
  7  8  2  0
  7  9  1  0
  9 10  1  0
 10 11  2  0
 10 23  1  0
 11 12  1  0
 12 13  1  0
 12 22  2  0
 14 13  1  6
 14 15  1  0
 14 21  1  0
 15 16  1  0
 16 17  1  6
 16 18  1  0
 18 19  1  0
 19 20  1  6
 19 21  1  0
 22 23  1  0
M  CHG  1  14   1
M  END
