
     RDKit          3D

 23 25  0  0  0  0  0  0  0  0999 V2000
   -2.6020   -0.5760   -2.1060 C   0  0  0  0  0  0  0  0  0  0  0  0
   -2.6820    0.1610   -0.8600 N   0  0  2  0  0  0  0  0  0  0  0  0
   -1.7560   -0.3420    0.1000 C   0  0  0  0  0  0  0  0  0  0  0  0
   -0.3610    0.1380   -0.2530 C   0  0  0  0  0  0  0  0  0  0  0  0
   -0.0940    0.9520   -1.3750 C   0  0  0  0  0  0  0  0  0  0  0  0
    1.7320    1.1480   -1.2060 S   0  0  0  0  0  0  0  0  0  0  0  0
    1.8170    0.1080    0.3310 C   0  0  0  0  0  0  0  0  0  0  0  0
    3.1930   -0.0330    0.8780 C   0  0  2  0  0  0  0  0  0  0  0  0
    3.7440    1.3390    1.0940 C   0  0  0  0  0  0  0  0  0  0  0  0
    5.1620    1.5150    0.6690 C   0  0  0  0  0  0  0  0  0  0  0  0
    6.0150    0.2840    0.8960 C   0  0  0  0  0  0  0  0  0  0  0  0
    5.4070   -0.8560    0.2560 N   0  0  0  0  0  0  0  0  0  0  0  0
    6.1580   -2.0310    0.0240 C   0  0  0  0  0  0  0  0  0  0  0  0
    5.6350   -3.0490   -0.5410 O   0  0  0  0  0  0  0  0  0  0  0  0
    7.4750   -2.0860    0.4110 O   0  0  0  0  0  0  0  0  0  0  0  0
    4.0390   -0.7930   -0.1430 C   0  0  0  0  0  0  0  0  0  0  0  0
    0.6810   -0.1730    0.4590 N   0  0  0  0  0  0  0  0  0  0  0  0
   -4.0400    0.1500   -0.3950 C   0  0  1  0  0  0  0  0  0  0  0  0
   -4.4590   -1.1460    0.2110 C   0  0  0  0  0  0  0  0  0  0  0  0
   -5.9260   -1.1270    0.4220 C   0  0  0  0  0  0  0  0  0  0  0  0
   -6.5240    0.0350    0.6390 C   0  0  0  0  0  0  0  0  0  0  0  0
   -5.8400    1.3530    0.6920 C   0  0  0  0  0  0  0  0  0  0  0  0
   -4.3370    1.2420    0.6070 C   0  0  0  0  0  0  0  0  0  0  0  0
  2  1  1  6
  2  3  1  0
  2 18  1  0
  3  4  1  0
  4  5  2  0
  4 17  1  0
  5  6  1  0
  6  7  1  0
  8  7  1  6
  7 17  2  0
  8  9  1  0
  8 16  1  0
  9 10  1  0
 10 11  1  0
 11 12  1  0
 12 13  1  0
 12 16  1  0
 13 14  2  0
 13 15  1  0
 18 19  1  1
 18 23  1  0
 19 20  1  0
 20 21  2  0
 21 22  1  0
 22 23  1  0
M  CHG  1   2   1
M  END
