
     RDKit          3D

 24 26  0  0  0  0  0  0  0  0999 V2000
    5.1960    1.9880   -1.5540 C   0  0  0  0  0  0  0  0  0  0  0  0
    3.9130    1.5510   -0.8740 C   0  0  0  0  0  0  0  0  0  0  0  0
    4.1620    0.7580    0.3380 C   0  0  0  0  0  0  0  0  0  0  0  0
    3.7370   -0.4750    0.4760 C   0  0  0  0  0  0  0  0  0  0  0  0
    2.8360   -1.3900   -0.6780 S   0  0  2  0  0  0  0  0  0  0  0  0
    2.9800   -2.8570   -0.4030 O   0  0  0  0  0  0  0  0  0  0  0  0
    3.4820   -1.1990   -2.0460 O   0  0  0  0  0  0  0  0  0  0  0  0
    1.1290   -0.8970   -0.7470 C   0  0  0  0  0  0  0  0  0  0  0  0
    0.4730   -1.0770    0.5750 C   0  0  2  0  0  0  0  0  0  0  0  0
    0.5330   -2.5360    1.0070 C   0  0  0  0  0  0  0  0  0  0  0  0
   -0.0990   -3.4000   -0.0280 C   0  0  0  0  0  0  0  0  0  0  0  0
   -1.4820   -2.9930   -0.1660 N   0  0  0  0  0  0  0  0  0  0  0  0
   -2.5230   -3.7170   -0.5770 N   0  0  0  0  0  0  0  0  0  0  0  0
   -3.5990   -2.9370   -0.5480 C   0  0  0  0  0  0  0  0  0  0  0  0
   -3.1980   -1.7300   -0.1140 N   0  0  0  0  0  0  0  0  0  0  0  0
   -1.8630   -1.7650    0.1270 C   0  0  0  0  0  0  0  0  0  0  0  0
   -0.9720   -0.6800    0.6180 C   0  0  2  0  0  0  0  0  0  0  0  0
   -1.3220    0.5340   -0.0240 N   0  0  0  0  0  0  0  0  0  0  0  0
   -1.9530    1.4990    0.8890 C   0  0  2  0  0  0  0  0  0  0  0  0
   -3.1760    0.9900    1.5060 C   0  0  0  0  0  0  0  0  0  0  0  0
   -4.3480    1.6060    1.4600 C   0  0  0  0  0  0  0  0  0  0  0  0
   -4.5010    2.8760    0.7670 C   0  0  0  0  0  0  0  0  0  0  0  0
   -3.4360    3.3910    0.1880 C   0  0  0  0  0  0  0  0  0  0  0  0
   -2.1020    2.7950    0.1800 C   0  0  0  0  0  0  0  0  0  0  0  0
  1  2  1  0
  2  3  1  0
  3  4  2  3
  4  5  1  0
  5  6  2  0
  5  7  2  0
  5  8  1  6
  9  8  1  6
  9 10  1  0
  9 17  1  0
 10 11  1  0
 11 12  1  0
 12 13  1  0
 12 16  1  0
 13 14  2  0
 14 15  1  0
 15 16  2  0
 16 17  1  0
 17 18  1  6
 19 18  1  6
 19 20  1  0
 19 24  1  0
 20 21  2  0
 21 22  1  0
 22 23  2  0
 23 24  1  0
M  CHG  1  18   1
M  END
