
     RDKit          3D

 24 26  0  0  0  0  0  0  0  0999 V2000
    4.2490    1.2020   -0.9580 C   0  0  0  0  0  0  0  0  0  0  0  0
    3.6380   -0.1790   -0.8810 C   0  0  1  0  0  0  0  0  0  0  0  0
    3.3910   -0.7700   -2.2340 C   0  0  0  0  0  0  0  0  0  0  0  0
    4.6670   -1.0680   -0.1870 C   0  0  0  0  0  0  0  0  0  0  0  0
    2.3930   -0.0950   -0.0860 C   0  0  0  0  0  0  0  0  0  0  0  0
    1.4650   -1.0810    0.0700 C   0  0  0  0  0  0  0  0  0  0  0  0
    0.4130   -0.6550    0.8960 C   0  0  0  0  0  0  0  0  0  0  0  0
    0.7810    0.6170    1.2070 N   0  0  0  0  0  0  0  0  0  0  0  0
    1.9220    0.9420    0.6410 N   0  0  0  0  0  0  0  0  0  0  0  0
   -0.2120    1.1830    2.0940 C   0  0  1  0  0  0  0  0  0  0  0  0
   -0.5610    2.5700    1.7800 C   0  0  0  0  0  0  0  0  0  0  0  0
   -1.1840    2.9350    0.1990 S   0  0  1  0  0  0  0  0  0  0  0  0
   -2.6800    2.1030   -0.2330 C   0  0  0  0  0  0  0  0  0  0  0  0
   -1.4380    4.4760    0.1150 N   0  0  0  0  0  0  0  0  0  0  0  0
   -0.1520    2.7660   -0.8940 O   0  0  0  0  0  0  0  0  0  0  0  0
   -1.2560    0.1750    2.1900 C   0  0  0  0  0  0  0  0  0  0  0  0
   -2.3480    0.2580    2.7780 O   0  0  0  0  0  0  0  0  0  0  0  0
   -0.8340   -1.0030    1.4720 N   0  0  0  0  0  0  0  0  0  0  0  0
   -1.5000   -2.2660    1.3810 C   0  0  0  0  0  0  0  0  0  0  0  0
   -2.4280   -2.3810    0.2680 C   0  0  0  0  0  0  0  0  0  0  0  0
   -3.7420   -2.6230    0.3760 C   0  0  0  0  0  0  0  0  0  0  0  0
   -4.3760   -2.6750   -0.9610 C   0  0  0  0  0  0  0  0  0  0  0  0
   -3.2500   -2.4290   -1.8690 C   0  0  0  0  0  0  0  0  0  0  0  0
   -2.1320   -2.2610   -1.1470 C   0  0  0  0  0  0  0  0  0  0  0  0
  2  1  1  6
  2  3  1  0
  2  4  1  0
  2  5  1  0
  5  6  1  0
  5  9  2  0
  6  7  2  0
  7  8  1  0
  7 18  1  0
  8  9  1  0
  8 10  1  0
 10 11  1  6
 10 16  1  0
 11 12  1  0
 12 13  1  6
 12 14  2  0
 12 15  2  0
 16 17  2  0
 16 18  1  0
 18 19  1  0
 19 20  1  0
 20 21  2  0
 20 24  1  0
 21 22  1  0
 22 23  1  0
 23 24  2  0
M  CHG  1  14   1
M  END
