
     RDKit          3D

 31 33  0  0  0  0  0  0  0  0999 V2000
    7.3430   -0.7800    1.6280 C   0  0  0  0  0  0  0  0  0  0  0  0
    6.1890   -1.2200    2.0870 C   0  0  0  0  0  0  0  0  0  0  0  0
    4.9400   -0.6610    1.7240 N   0  0  0  0  0  0  0  0  0  0  0  0
    4.1790   -1.2120    0.6670 C   0  0  0  0  0  0  0  0  0  0  0  0
    4.6460   -2.3170   -0.0330 C   0  0  0  0  0  0  0  0  0  0  0  0
    3.9620   -2.8680   -1.0400 N   0  0  0  0  0  0  0  0  0  0  0  0
    2.7840   -2.3530   -1.4030 C   0  0  0  0  0  0  0  0  0  0  0  0
    2.2540   -1.2660   -0.7640 C   0  0  0  0  0  0  0  0  0  0  0  0
    0.9670   -0.7220   -1.1840 C   0  0  0  0  0  0  0  0  0  0  0  0
    0.2710    0.0800   -0.2440 N   0  0  0  0  0  0  0  0  0  0  0  0
   -0.7510   -0.5510    0.6430 C   0  0  0  0  0  0  0  0  0  0  0  0
   -2.0800   -0.5110   -0.0110 C   0  0  0  0  0  0  0  0  0  0  0  0
   -2.2510    0.0370   -1.2780 C   0  0  0  0  0  0  0  0  0  0  0  0
   -3.4930    0.0610   -1.8930 C   0  0  0  0  0  0  0  0  0  0  0  0
   -3.6060    0.6190   -3.1560 O   0  0  0  0  0  0  0  0  0  0  0  0
   -4.8060    0.7050   -3.8930 C   0  0  0  0  0  0  0  0  0  0  0  0
   -4.5390   -0.4850   -1.1840 C   0  0  0  0  0  0  0  0  0  0  0  0
   -4.3740   -1.0330    0.0800 C   0  0  0  0  0  0  0  0  0  0  0  0
   -3.1380   -1.0540    0.6860 C   0  0  0  0  0  0  0  0  0  0  0  0
   -2.9550   -1.6170    1.9950 N   0  0  0  0  0  0  0  0  0  0  0  0
   -4.0870   -2.1560    2.6530 C   0  0  0  0  0  0  0  0  0  0  0  0
   -5.0340   -1.3500    3.0810 C   0  0  0  0  0  0  0  0  0  0  0  0
   -6.2590   -1.8400    3.7840 C   0  0  0  0  0  0  0  0  0  0  0  0
    0.4420    1.4430   -0.0510 C   0  0  0  0  0  0  0  0  0  0  0  0
   -0.3180    2.0460    0.8330 O   0  0  0  0  0  0  0  0  0  0  0  0
    1.3690    2.3400   -0.7010 C   0  0  0  0  0  0  0  0  0  0  0  0
    2.2680    2.0900   -1.6070 C   0  0  0  0  0  0  0  0  0  0  0  0
    3.0310    3.3210   -2.0220 C   0  0  0  0  0  0  0  0  0  0  0  0
    2.6740    4.3260   -0.9810 C   0  0  0  0  0  0  0  0  0  0  0  0
    1.4100    3.8320   -0.3680 C   0  0  0  0  0  0  0  0  0  0  0  0
    2.9600   -0.7040    0.2690 C   0  0  0  0  0  0  0  0  0  0  0  0
  1  2  2  0
  2  3  1  0
  3  4  1  0
  4  5  2  0
  4 31  1  0
  5  6  1  0
  6  7  2  0
  7  8  1  0
  8  9  1  0
  8 31  2  0
  9 10  1  0
 10 11  1  0
 10 24  1  0
 11 12  1  0
 12 13  2  0
 12 19  1  0
 13 14  1  0
 14 15  1  0
 14 17  2  0
 15 16  1  0
 17 18  1  0
 18 19  2  0
 19 20  1  0
 20 21  1  0
 21 22  2  3
 22 23  1  0
 24 25  2  0
 24 26  1  0
 26 27  2  0
 26 30  1  0
 27 28  1  0
 28 29  1  0
 29 30  1  0
M  END
