
     RDKit          3D

 31 33  0  0  0  0  0  0  0  0999 V2000
    3.4130   -3.2980   -2.3810 C   0  0  0  0  0  0  0  0  0  0  0  0
    4.2680   -3.2990   -1.1480 C   0  0  0  0  0  0  0  0  0  0  0  0
    3.7460   -2.3580   -0.0790 C   0  0  0  0  0  0  0  0  0  0  0  0
    3.6920   -0.9410   -0.5620 C   0  0  0  0  0  0  0  0  0  0  0  0
    3.1870    0.0070    0.4930 C   0  0  0  0  0  0  0  0  0  0  0  0
    1.7650   -0.3750    0.9180 C   0  0  0  0  0  0  0  0  0  0  0  0
    1.3530    0.6360    1.9740 C   0  0  0  0  0  0  0  0  0  0  0  0
    1.3550    1.9750    1.4050 C   0  0  0  0  0  0  0  0  0  0  0  0
    2.4550    2.7880    1.4680 N   0  0  0  0  0  0  0  0  0  0  0  0
    2.1700    3.9040    0.8350 N   0  0  0  0  0  0  0  0  0  0  0  0
    0.9070    3.8610    0.3510 C   0  0  0  0  0  0  0  0  0  0  0  0
    0.1250    4.7570   -0.3500 C   0  0  0  0  0  0  0  0  0  0  0  0
    0.6750    6.0720   -0.7410 C   0  0  0  0  0  0  0  0  0  0  0  0
   -1.1760    4.4630   -0.7040 C   0  0  0  0  0  0  0  0  0  0  0  0
   -1.7160    3.2520   -0.3540 C   0  0  0  0  0  0  0  0  0  0  0  0
   -3.1200    2.8730   -0.7040 C   0  0  0  0  0  0  0  0  0  0  0  0
   -0.9100    2.3610    0.3530 C   0  0  0  0  0  0  0  0  0  0  0  0
   -1.5030    1.1000    0.7620 N   0  0  0  0  0  0  0  0  0  0  0  0
   -1.6510   -0.0010   -0.1090 C   0  0  0  0  0  0  0  0  0  0  0  0
   -1.1860    0.3130   -1.2740 O   0  0  0  0  0  0  0  0  0  0  0  0
   -2.2160   -1.2890    0.1640 C   0  0  0  0  0  0  0  0  0  0  0  0
   -2.2100   -2.1890   -0.8230 C   0  0  0  0  0  0  0  0  0  0  0  0
   -1.6440   -1.8860   -2.1290 C   0  0  0  0  0  0  0  0  0  0  0  0
   -2.6780   -1.7230   -3.2350 C   0  0  0  0  0  0  0  0  0  0  0  0
   -2.7610   -3.4580   -0.6050 O   0  0  0  0  0  0  0  0  0  0  0  0
   -3.3320   -3.9280    0.5710 C   0  0  0  0  0  0  0  0  0  0  0  0
   -3.3220   -2.9180    1.6260 C   0  0  0  0  0  0  0  0  0  0  0  0
   -2.7970   -1.6840    1.4250 C   0  0  0  0  0  0  0  0  0  0  0  0
   -2.8490   -0.7790    2.5140 N   0  0  0  0  0  0  0  0  0  0  0  0
   -1.9320   -0.9290    3.6150 C   0  0  0  0  0  0  0  0  0  0  0  0
    0.3780    2.6310    0.7110 C   0  0  0  0  0  0  0  0  0  0  0  0
  1  2  1  0
  2  3  1  0
  3  4  1  0
  4  5  1  0
  5  6  1  0
  6  7  1  0
  7  8  1  0
  8  9  2  0
  8 31  1  0
  9 10  1  0
 10 11  1  0
 11 12  2  0
 11 31  1  0
 12 13  1  0
 12 14  1  0
 14 15  2  0
 15 16  1  0
 15 17  1  0
 17 18  1  0
 17 31  2  0
 18 19  1  0
 19 20  2  0
 19 21  1  0
 21 22  2  0
 21 28  1  0
 22 23  1  0
 22 25  1  0
 23 24  1  0
 25 26  1  0
 26 27  1  0
 27 28  2  0
 28 29  1  0
 29 30  1  0
M  END
