
     RDKit          3D

 28 30  0  0  0  0  0  0  0  0999 V2000
    4.3940    3.2510    0.5430 C   0  0  0  0  0  0  0  0  0  0  0  0
    4.7770    1.9810    0.3960 C   0  0  0  0  0  0  0  0  0  0  0  0
    6.1320    1.6340    0.0750 C   0  0  0  0  0  0  0  0  0  0  0  0
    6.5590    0.4050   -0.0320 C   0  0  0  0  0  0  0  0  0  0  0  0
    5.8930   -0.8830    0.1300 C   0  0  0  0  0  0  0  0  0  0  0  0
    6.9360   -1.7440    0.9440 C   0  0  0  0  0  0  0  0  0  0  0  0
    7.1300    2.6620   -0.1610 C   0  0  0  0  0  0  0  0  0  0  0  0
    8.3320    2.2800   -0.4550 O   0  0  0  0  0  0  0  0  0  0  0  0
    6.9540    3.9930   -0.1120 O   0  0  0  0  0  0  0  0  0  0  0  0
    3.6540    1.0600    0.5370 C   0  0  0  0  0  0  0  0  0  0  0  0
    2.7860    0.7300    1.4910 C   0  0  0  0  0  0  0  0  0  0  0  0
    1.7880   -0.1260    1.2650 C   0  0  0  0  0  0  0  0  0  0  0  0
    1.6440   -0.6880    0.0190 C   0  0  0  0  0  0  0  0  0  0  0  0
    0.7190   -1.6070   -0.5410 C   0  0  0  0  0  0  0  0  0  0  0  0
   -0.3590   -0.9470   -1.3050 C   0  0  0  0  0  0  0  0  0  0  0  0
   -0.0740   -0.4470   -2.4310 O   0  0  0  0  0  0  0  0  0  0  0  0
   -1.7420   -0.8340   -0.8380 C   0  0  0  0  0  0  0  0  0  0  0  0
   -2.1670   -1.2270    0.4070 C   0  0  0  0  0  0  0  0  0  0  0  0
   -3.4830   -1.1320    0.8350 C   0  0  0  0  0  0  0  0  0  0  0  0
   -4.4540   -0.6100   -0.0320 C   0  0  0  0  0  0  0  0  0  0  0  0
   -5.8580   -0.4780    0.3700 C   0  0  2  0  0  0  0  0  0  0  0  0
   -6.7420   -1.6250    0.0060 C   0  0  0  0  0  0  0  0  0  0  0  0
   -8.1240   -0.9870    0.2210 C   0  0  0  0  0  0  0  0  0  0  0  0
   -7.8740    0.3810   -0.4200 C   0  0  0  0  0  0  0  0  0  0  0  0
   -6.5090    0.7320   -0.0350 N   0  0  0  0  0  0  0  0  0  0  0  0
   -4.0370   -0.2110   -1.2860 C   0  0  0  0  0  0  0  0  0  0  0  0
   -2.7180   -0.3160   -1.6900 C   0  0  0  0  0  0  0  0  0  0  0  0
    2.9900    0.0380   -0.8680 S   0  0  0  0  0  0  0  0  0  0  0  0
  1  2  2  0
  2  3  1  0
  2 10  1  0
  3  4  2  3
  3  7  1  0
  4  5  1  0
  5  6  1  0
  7  8  2  0
  7  9  1  0
 10 11  2  0
 10 28  1  0
 11 12  1  0
 12 13  2  0
 13 14  1  0
 13 28  1  0
 14 15  1  0
 15 16  2  0
 15 17  1  0
 17 18  2  0
 17 27  1  0
 18 19  1  0
 19 20  2  0
 21 20  1  6
 20 26  1  0
 21 22  1  0
 21 25  1  0
 22 23  1  0
 23 24  1  0
 24 25  1  0
 26 27  2  0
M  CHG  1  25   1
M  END
