
     RDKit          3D

 28 30  0  0  0  0  0  0  0  0999 V2000
   -7.0880   -1.0370   -1.3380 C   0  0  0  0  0  0  0  0  0  0  0  0
   -6.4660   -0.9990    0.0470 C   0  0  0  0  0  0  0  0  0  0  0  0
   -5.4940    0.1770    0.1450 C   0  0  0  0  0  0  0  0  0  0  0  0
   -5.8400    1.3090    0.7850 C   0  0  0  0  0  0  0  0  0  0  0  0
   -4.9370    2.3400    0.8110 C   0  0  0  0  0  0  0  0  0  0  0  0
   -3.5590    1.7020   -0.0900 S   0  0  0  0  0  0  0  0  0  0  0  0
   -4.2690    0.0980   -0.4460 C   0  0  0  0  0  0  0  0  0  0  0  0
   -3.5720   -0.9750   -1.1850 C   0  0  0  0  0  0  0  0  0  0  0  0
   -2.9520   -1.9250   -0.1990 C   0  0  0  0  0  0  0  0  0  0  0  0
   -2.0280   -1.3110    0.6390 O   0  0  0  0  0  0  0  0  0  0  0  0
   -0.8360   -0.7240    0.3380 C   0  0  0  0  0  0  0  0  0  0  0  0
   -0.2610   -0.6430   -0.8970 C   0  0  0  0  0  0  0  0  0  0  0  0
    0.9730   -0.0040   -1.0710 C   0  0  0  0  0  0  0  0  0  0  0  0
    1.6470    0.5600   -0.0190 C   0  0  0  0  0  0  0  0  0  0  0  0
    2.9700    1.2260   -0.2220 C   0  0  2  0  0  0  0  0  0  0  0  0
    3.0120    1.9820   -1.4580 N   0  0  0  0  0  0  0  0  0  0  0  0
    4.1100    0.3160   -0.1650 C   0  0  0  0  0  0  0  0  0  0  0  0
    4.0190   -0.9770   -0.6650 C   0  0  0  0  0  0  0  0  0  0  0  0
    5.0870   -1.8740   -0.6120 C   0  0  0  0  0  0  0  0  0  0  0  0
    6.2740   -1.4580   -0.0420 C   0  0  0  0  0  0  0  0  0  0  0  0
    7.3790   -2.3010    0.0440 O   0  0  0  0  0  0  0  0  0  0  0  0
    6.3650   -0.1970    0.4460 C   0  0  0  0  0  0  0  0  0  0  0  0
    5.2940    0.7060    0.3940 C   0  0  0  0  0  0  0  0  0  0  0  0
    5.5420    2.0310    0.9450 C   0  0  0  0  0  0  0  0  0  0  0  0
    1.0500    0.4670    1.2210 C   0  0  0  0  0  0  0  0  0  0  0  0
   -0.1590   -0.1530    1.4200 C   0  0  0  0  0  0  0  0  0  0  0  0
   -0.6950   -0.2040    2.6990 O   0  0  0  0  0  0  0  0  0  0  0  0
   -0.0010    0.3760    3.7830 C   0  0  0  0  0  0  0  0  0  0  0  0
  1  2  1  0
  2  3  1  0
  3  4  1  0
  3  7  2  0
  4  5  2  0
  5  6  1  0
  6  7  1  0
  7  8  1  0
  8  9  1  0
  9 10  1  0
 10 11  1  0
 11 12  2  0
 11 26  1  0
 12 13  1  0
 13 14  2  0
 14 15  1  0
 14 25  1  0
 15 16  1  6
 15 17  1  0
 17 18  2  0
 17 23  1  0
 18 19  1  0
 19 20  2  0
 20 21  1  0
 20 22  1  0
 22 23  2  0
 23 24  1  0
 25 26  2  0
 26 27  1  0
 27 28  1  0
M  CHG  1  16   1
M  END
