
     RDKit          3D

 28 30  0  0  0  0  0  0  0  0999 V2000
   -4.8830   -2.0570   -2.1370 C   0  0  0  0  0  0  0  0  0  0  0  0
   -5.3080   -1.1360   -1.0800 C   0  0  0  0  0  0  0  0  0  0  0  0
   -6.5100   -1.3550   -0.3900 C   0  0  0  0  0  0  0  0  0  0  0  0
   -6.8970   -0.4690    0.6100 C   0  0  0  0  0  0  0  0  0  0  0  0
   -8.0960   -0.7620    1.2400 O   0  0  0  0  0  0  0  0  0  0  0  0
   -6.1040    0.6220    0.9260 C   0  0  0  0  0  0  0  0  0  0  0  0
   -4.9280    0.8010    0.2220 C   0  0  0  0  0  0  0  0  0  0  0  0
   -4.5130   -0.0540   -0.7750 C   0  0  0  0  0  0  0  0  0  0  0  0
   -3.3540    0.1780   -1.4230 O   0  0  0  0  0  0  0  0  0  0  0  0
   -2.0960   -0.2250   -1.1690 C   0  0  0  0  0  0  0  0  0  0  0  0
   -1.8230   -1.0160   -0.0820 C   0  0  0  0  0  0  0  0  0  0  0  0
   -0.5350   -1.4520    0.2120 C   0  0  0  0  0  0  0  0  0  0  0  0
    0.5040   -1.0950   -0.5870 C   0  0  0  0  0  0  0  0  0  0  0  0
    1.8690   -1.5050   -0.3500 C   0  0  0  0  0  0  0  0  0  0  0  0
    2.7150   -0.6330    0.4910 C   0  0  0  0  0  0  0  0  0  0  0  0
    4.1070   -1.2160    0.6310 C   0  0  0  0  0  0  0  0  0  0  0  0
    4.9180   -0.3260    1.4710 N   0  0  0  0  0  0  0  0  0  0  0  0
    5.5290    0.7030    0.6510 C   0  0  0  0  0  0  0  0  0  0  0  0
    6.9090    0.3010    0.1760 C   0  0  1  0  0  0  0  0  0  0  0  0
    7.3750    1.4190   -0.7640 C   0  0  0  0  0  0  0  0  0  0  0  0
    7.8840    0.1040    1.2910 C   0  0  0  0  0  0  0  0  0  0  0  0
    6.8660   -0.8640   -0.5890 O   0  0  0  0  0  0  0  0  0  0  0  0
    0.2450   -0.2920   -1.6940 C   0  0  0  0  0  0  0  0  0  0  0  0
   -1.0510    0.1400   -1.9820 C   0  0  0  0  0  0  0  0  0  0  0  0
   -4.0840    1.9460    0.5480 C   0  0  0  0  0  0  0  0  0  0  0  0
   -4.7770    3.2710    0.5430 C   0  0  0  0  0  0  0  0  0  0  0  0
   -5.9750    3.1950    1.9310 S   0  0  0  0  0  0  0  0  0  0  0  0
   -6.5880    1.5080    1.9930 C   0  0  0  0  0  0  0  0  0  0  0  0
  1  2  1  0
  2  3  2  0
  2  8  1  0
  3  4  1  0
  4  5  1  0
  4  6  2  0
  6  7  1  0
  6 28  1  0
  7  8  2  0
  7 25  1  0
  8  9  1  0
  9 10  1  0
 10 11  2  0
 10 24  1  0
 11 12  1  0
 12 13  2  0
 13 14  1  0
 13 23  1  0
 14 15  1  0
 15 16  1  0
 16 17  1  0
 17 18  1  0
 18 19  1  0
 19 20  1  6
 19 21  1  0
 19 22  1  0
 23 24  2  0
 25 26  1  0
 26 27  1  0
 27 28  1  0
M  CHG  1  17   1
M  END
