
     RDKit          3D

 28 30  0  0  0  0  0  0  0  0999 V2000
    5.9670   -1.5850    0.1870 C   0  0  0  0  0  0  0  0  0  0  0  0
    5.6340   -0.3800   -0.6470 C   0  0  2  0  0  0  0  0  0  0  0  0
    6.2970    0.8580   -0.1090 C   0  0  0  0  0  0  0  0  0  0  0  0
    7.8140    0.6240   -0.1340 C   0  0  0  0  0  0  0  0  0  0  0  0
    8.4530    1.8920    0.4150 C   0  0  0  0  0  0  0  0  0  0  0  0
    9.8400    1.7810    0.4340 O   0  0  0  0  0  0  0  0  0  0  0  0
    4.2320   -0.2270   -0.8690 N   0  0  0  0  0  0  0  0  0  0  0  0
    3.5060    0.3590    0.2250 C   0  0  0  0  0  0  0  0  0  0  0  0
    2.2140   -0.3590    0.3440 C   0  0  0  0  0  0  0  0  0  0  0  0
    2.0660   -1.4530    1.1700 C   0  0  0  0  0  0  0  0  0  0  0  0
    0.8520   -2.1030    1.2610 C   0  0  0  0  0  0  0  0  0  0  0  0
   -0.2390   -1.6610    0.5190 C   0  0  0  0  0  0  0  0  0  0  0  0
   -1.5340   -2.3190    0.5750 C   0  0  0  0  0  0  0  0  0  0  0  0
   -1.6610   -3.5410    0.8610 O   0  0  0  0  0  0  0  0  0  0  0  0
   -2.7090   -1.5720    0.3010 C   0  0  0  0  0  0  0  0  0  0  0  0
   -3.1110   -0.2800    0.4400 C   0  0  0  0  0  0  0  0  0  0  0  0
   -4.3140    0.1360    0.0680 C   0  0  0  0  0  0  0  0  0  0  0  0
   -5.1950   -0.8430   -0.4970 C   0  0  0  0  0  0  0  0  0  0  0  0
   -4.2440   -2.3050   -0.4610 S   0  0  0  0  0  0  0  0  0  0  0  0
   -6.5360   -0.4480   -0.9260 C   0  0  0  0  0  0  0  0  0  0  0  0
   -7.2590    0.3920    0.1160 C   0  0  2  0  0  0  0  0  0  0  0  0
   -7.8760   -0.6000    1.1010 C   0  0  0  0  0  0  0  0  0  0  0  0
   -8.3970    1.1350   -0.5470 C   0  0  0  0  0  0  0  0  0  0  0  0
   -6.3300    1.2850    0.8710 C   0  0  0  0  0  0  0  0  0  0  0  0
   -5.0190    1.4890    0.1030 C   0  0  1  0  0  0  0  0  0  0  0  0
   -4.2110    2.3890    0.7470 O   0  0  0  0  0  0  0  0  0  0  0  0
   -0.0550   -0.5650   -0.2960 C   0  0  0  0  0  0  0  0  0  0  0  0
    1.1480    0.0920   -0.3950 C   0  0  0  0  0  0  0  0  0  0  0  0
  2  1  1  1
  2  3  1  0
  2  7  1  0
  3  4  1  0
  4  5  1  0
  5  6  1  0
  7  8  1  0
  8  9  1  0
  9 10  2  0
  9 28  1  0
 10 11  1  0
 11 12  2  0
 12 13  1  0
 12 27  1  0
 13 14  2  0
 13 15  1  0
 15 16  2  0
 15 19  1  0
 16 17  1  0
 17 18  2  0
 17 25  1  0
 18 19  1  0
 18 20  1  0
 20 21  1  0
 21 22  1  1
 21 23  1  0
 21 24  1  0
 24 25  1  0
 25 26  1  1
 27 28  2  0
M  CHG  1   7   1
M  END
