
     RDKit          3D

 28 30  0  0  0  0  0  0  0  0999 V2000
   -6.9360    0.5030   -1.4710 C   0  0  0  0  0  0  0  0  0  0  0  0
   -6.9140    0.7830    0.0660 C   0  0  2  0  0  0  0  0  0  0  0  0
   -7.8840   -0.1460    0.7240 C   0  0  0  0  0  0  0  0  0  0  0  0
   -7.2610    2.2190    0.2570 C   0  0  0  0  0  0  0  0  0  0  0  0
   -5.4680    0.5260    0.3820 C   0  0  0  0  0  0  0  0  0  0  0  0
   -4.6110    1.3670    0.9950 C   0  0  0  0  0  0  0  0  0  0  0  0
   -3.2530    1.0210    1.1830 C   0  0  0  0  0  0  0  0  0  0  0  0
   -2.7670   -0.1860    0.7540 C   0  0  0  0  0  0  0  0  0  0  0  0
   -1.5390   -0.6790    0.8690 O   0  0  0  0  0  0  0  0  0  0  0  0
   -0.3150   -0.6070    0.4130 C   0  0  0  0  0  0  0  0  0  0  0  0
    0.1440    0.4480   -0.3780 C   0  0  0  0  0  0  0  0  0  0  0  0
    1.4210    0.6100   -0.8790 C   0  0  0  0  0  0  0  0  0  0  0  0
    2.3230   -0.3930   -0.5570 C   0  0  0  0  0  0  0  0  0  0  0  0
    3.7850   -0.2520   -0.8300 C   0  0  0  0  0  0  0  0  0  0  0  0
    4.0940    1.2400   -0.7190 C   0  0  0  0  0  0  0  0  0  0  0  0
    5.4240    1.6330    0.3690 S   0  0  0  0  0  0  0  0  0  0  0  0
    7.0490    1.0940   -0.0840 C   0  0  1  0  0  0  0  0  0  0  0  0
    7.9060    0.8500    1.1670 C   0  0  0  0  0  0  0  0  0  0  0  0
    8.9760   -0.0220    0.5860 C   0  0  0  0  0  0  0  0  0  0  0  0
    8.4200   -0.7460   -0.5340 N   0  0  0  0  0  0  0  0  0  0  0  0
    7.0570   -0.3010   -0.7020 C   0  0  0  0  0  0  0  0  0  0  0  0
    1.9280   -1.4550    0.2070 C   0  0  0  0  0  0  0  0  0  0  0  0
    0.6600   -1.6050    0.7010 C   0  0  0  0  0  0  0  0  0  0  0  0
    0.2870   -2.6730    1.4570 O   0  0  0  0  0  0  0  0  0  0  0  0
   -3.7030   -1.0610    0.0950 C   0  0  0  0  0  0  0  0  0  0  0  0
   -3.0570   -2.3840   -0.2360 C   0  0  0  0  0  0  0  0  0  0  0  0
   -3.0280   -2.4040   -1.6370 O   0  0  0  0  0  0  0  0  0  0  0  0
   -4.9690   -0.7020   -0.0670 C   0  0  0  0  0  0  0  0  0  0  0  0
  2  1  1  6
  2  3  1  0
  2  4  1  0
  2  5  1  0
  5  6  2  0
  5 28  1  0
  6  7  1  0
  7  8  2  0
  8  9  1  0
  8 25  1  0
  9 10  1  0
 10 11  2  0
 10 23  1  0
 11 12  1  0
 12 13  2  0
 13 14  1  0
 13 22  1  0
 14 15  1  0
 15 16  1  0
 17 16  1  1
 17 18  1  0
 17 21  1  0
 18 19  1  0
 19 20  1  0
 20 21  1  0
 22 23  2  0
 23 24  1  0
 25 26  1  0
 25 28  2  0
 26 27  1  0
M  CHG  1  20   1
M  END
