
     RDKit          3D

 28 30  0  0  0  0  0  0  0  0999 V2000
   -6.4390   -0.7010    2.0090 C   0  0  0  0  0  0  0  0  0  0  0  0
   -5.6100    0.3640    1.3850 C   0  0  0  0  0  0  0  0  0  0  0  0
   -5.9980    1.6740    1.5200 C   0  0  0  0  0  0  0  0  0  0  0  0
   -5.2400    2.6790    0.9460 C   0  0  0  0  0  0  0  0  0  0  0  0
   -4.0810    2.3520    0.2320 C   0  0  0  0  0  0  0  0  0  0  0  0
   -3.6810    1.0400    0.0890 C   0  0  0  0  0  0  0  0  0  0  0  0
   -2.4850    0.6590   -0.6450 C   0  0  1  0  0  0  0  0  0  0  0  0
   -2.8600   -0.2610   -1.8100 C   0  0  0  0  0  0  0  0  0  0  0  0
   -1.9080    1.9130   -1.2880 C   0  0  0  0  0  0  0  0  0  0  0  0
   -1.3960    0.0550    0.1950 C   0  0  0  0  0  0  0  0  0  0  0  0
   -0.2780   -0.2670   -0.6930 N   0  0  0  0  0  0  0  0  0  0  0  0
    0.5140   -1.3660   -0.1140 C   0  0  1  0  0  0  0  0  0  0  0  0
    0.3880   -2.6160   -0.9470 C   0  0  0  0  0  0  0  0  0  0  0  0
    0.8570   -2.4370   -2.2520 O   0  0  0  0  0  0  0  0  0  0  0  0
    1.9420   -0.9770   -0.0350 C   0  0  0  0  0  0  0  0  0  0  0  0
    2.9760   -1.7730   -0.4720 C   0  0  0  0  0  0  0  0  0  0  0  0
    4.3110   -1.4070   -0.3910 C   0  0  0  0  0  0  0  0  0  0  0  0
    5.3740   -2.3190   -0.8840 C   0  0  0  0  0  0  0  0  0  0  0  0
    4.6080   -3.8250   -1.5320 S   0  0  0  0  0  0  0  0  0  0  0  0
    4.6270   -0.1740    0.1600 C   0  0  0  0  0  0  0  0  0  0  0  0
    3.6240    0.6450    0.6060 C   0  0  0  0  0  0  0  0  0  0  0  0
    2.3050    0.2470    0.5090 C   0  0  0  0  0  0  0  0  0  0  0  0
    3.9220    1.9920    1.2080 C   0  0  0  0  0  0  0  0  0  0  0  0
    5.3820    2.0930    1.5410 C   0  0  0  0  0  0  0  0  0  0  0  0
    6.2140    1.6180    0.3440 C   0  0  0  0  0  0  0  0  0  0  0  0
    5.9690    0.2300    0.2590 O   0  0  0  0  0  0  0  0  0  0  0  0
   -4.4680    0.0710    0.6790 C   0  0  0  0  0  0  0  0  0  0  0  0
   -4.0790   -1.2340    0.5430 O   0  0  0  0  0  0  0  0  0  0  0  0
  1  2  1  0
  2  3  2  0
  2 27  1  0
  3  4  1  0
  4  5  2  0
  5  6  1  0
  6  7  1  0
  6 27  2  0
  7  8  1  6
  7  9  1  0
  7 10  1  0
 10 11  1  0
 11 12  1  0
 12 13  1  6
 12 15  1  0
 13 14  1  0
 15 16  2  0
 15 22  1  0
 16 17  1  0
 17 18  1  0
 17 20  2  0
 18 19  1  0
 20 21  1  0
 20 26  1  0
 21 22  2  0
 21 23  1  0
 23 24  1  0
 24 25  1  0
 25 26  1  0
 27 28  1  0
M  CHG  1  11   1
M  END
