
     RDKit          3D

 23 25  0  0  0  0  0  0  0  0999 V2000
    4.5870    1.3670    0.8710 C   0  0  0  0  0  0  0  0  0  0  0  0
    3.2170    1.7710    0.3890 C   0  0  0  0  0  0  0  0  0  0  0  0
    2.4930    0.6970   -0.2860 C   0  0  0  0  0  0  0  0  0  0  0  0
    1.4630    0.0220    0.3580 C   0  0  0  0  0  0  0  0  0  0  0  0
    0.7560   -0.9970   -0.2440 C   0  0  0  0  0  0  0  0  0  0  0  0
   -0.3250   -1.6780    0.4620 C   0  0  0  0  0  0  0  0  0  0  0  0
   -0.2740   -2.8950    1.0430 N   0  0  0  0  0  0  0  0  0  0  0  0
   -1.4430   -3.1650    1.5860 N   0  0  0  0  0  0  0  0  0  0  0  0
   -2.2910   -2.1490    1.3850 C   0  0  0  0  0  0  0  0  0  0  0  0
   -3.7020   -1.9930    1.8080 C   0  0  0  0  0  0  0  0  0  0  0  0
   -1.5920   -1.1740    0.6600 C   0  0  0  0  0  0  0  0  0  0  0  0
   -2.1550    0.0920    0.2290 C   0  0  0  0  0  0  0  0  0  0  0  0
   -1.7200    1.2990    0.7210 C   0  0  0  0  0  0  0  0  0  0  0  0
   -2.2770    2.4930    0.2880 C   0  0  0  0  0  0  0  0  0  0  0  0
   -3.2830    2.5070   -0.6480 C   0  0  0  0  0  0  0  0  0  0  0  0
   -3.7310    1.3050   -1.1520 C   0  0  0  0  0  0  0  0  0  0  0  0
   -3.1760    0.1220   -0.7200 C   0  0  0  0  0  0  0  0  0  0  0  0
   -3.5880   -1.0790   -1.1910 F   0  0  0  0  0  0  0  0  0  0  0  0
    1.1250   -1.3240   -1.5430 C   0  0  0  0  0  0  0  0  0  0  0  0
    0.4400   -2.3320   -2.1630 O   0  0  0  0  0  0  0  0  0  0  0  0
    2.1480   -0.6660   -2.2050 C   0  0  0  0  0  0  0  0  0  0  0  0
    2.8460    0.3500   -1.5920 C   0  0  0  0  0  0  0  0  0  0  0  0
    3.8710    1.0470   -2.1840 O   0  0  0  0  0  0  0  0  0  0  0  0
  1  2  1  0
  2  3  1  0
  3  4  2  0
  3 22  1  0
  4  5  1  0
  5  6  1  0
  5 19  2  0
  6  7  1  0
  6 11  2  0
  7  8  1  0
  8  9  2  0
  9 10  1  0
  9 11  1  0
 11 12  1  0
 12 13  2  0
 12 17  1  0
 13 14  1  0
 14 15  2  0
 15 16  1  0
 16 17  2  0
 17 18  1  0
 19 20  1  0
 19 21  1  0
 21 22  2  0
 22 23  1  0
M  END
