
     RDKit          3D

 25 27  0  0  0  0  0  0  0  0999 V2000
    0.9190    5.3560   -0.0020 C   0  0  0  0  0  0  0  0  0  0  0  0
    1.0150    4.0600    0.1830 C   0  0  0  0  0  0  0  0  0  0  0  0
    0.3010    3.0510   -0.6310 C   0  0  0  0  0  0  0  0  0  0  0  0
   -0.5880    2.2240    0.1850 C   0  0  0  0  0  0  0  0  0  0  0  0
   -0.4630    0.9950    0.4820 C   0  0  0  0  0  0  0  0  0  0  0  0
   -1.5350    0.4410    1.3110 N   0  0  0  0  0  0  0  0  0  0  0  0
   -2.5420   -0.1110    0.7300 C   0  0  0  0  0  0  0  0  0  0  0  0
   -2.7670   -0.2630   -0.6120 O   0  0  0  0  0  0  0  0  0  0  0  0
   -3.9820   -0.9190   -0.8710 C   0  0  0  0  0  0  0  0  0  0  0  0
   -4.5750   -1.2050    0.4560 C   0  0  0  0  0  0  0  0  0  0  0  0
   -3.6860   -0.7070    1.4040 C   0  0  0  0  0  0  0  0  0  0  0  0
   -4.2790   -0.9950    2.6220 C   0  0  0  0  0  0  0  0  0  0  0  0
   -5.4380   -1.6210    2.3570 N   0  0  0  0  0  0  0  0  0  0  0  0
   -5.6350   -1.7570    1.0700 N   0  0  0  0  0  0  0  0  0  0  0  0
   -6.7860   -2.3880    0.4160 C   0  0  0  0  0  0  0  0  0  0  0  0
    0.6450    0.1100    0.2240 C   0  0  0  0  0  0  0  0  0  0  0  0
    0.4200   -1.2820    0.3460 C   0  0  0  0  0  0  0  0  0  0  0  0
    1.4210   -2.1890    0.1820 C   0  0  0  0  0  0  0  0  0  0  0  0
    2.7020   -1.7760   -0.1110 C   0  0  0  0  0  0  0  0  0  0  0  0
    2.9990   -0.4450   -0.2420 C   0  0  0  0  0  0  0  0  0  0  0  0
    4.2490    0.0430   -0.5270 O   0  0  0  0  0  0  0  0  0  0  0  0
    5.4070   -0.6870   -0.6970 C   0  0  0  0  0  0  0  0  0  0  0  0
    5.9000   -1.4260    0.4880 C   0  0  0  0  0  0  0  0  0  0  0  0
    7.1030   -1.1620    0.9790 C   0  0  0  0  0  0  0  0  0  0  0  0
    1.9280    0.4540   -0.0630 C   0  0  0  0  0  0  0  0  0  0  0  0
  1  2  2  0
  2  3  1  0
  3  4  1  0
  4  5  2  3
  5  6  1  0
  5 16  1  0
  6  7  2  3
  7  8  1  0
  7 11  1  0
  8  9  1  0
  9 10  1  0
 10 11  2  0
 10 14  1  0
 11 12  1  0
 12 13  2  0
 13 14  1  0
 14 15  1  0
 16 17  2  0
 16 25  1  0
 17 18  1  0
 18 19  2  0
 19 20  1  0
 20 21  1  0
 20 25  2  0
 21 22  1  0
 22 23  1  0
 23 24  2  0
M  END
