
     RDKit          3D

 25 27  0  0  0  0  0  0  0  0999 V2000
    5.5900    1.7920    1.6110 C   0  0  0  0  0  0  0  0  0  0  0  0
    5.8360    1.4000    0.2460 N   0  0  0  0  0  0  0  0  0  0  0  0
    7.1160    1.5980   -0.3530 C   0  0  0  0  0  0  0  0  0  0  0  0
    4.7860    0.8140   -0.4900 C   0  0  0  0  0  0  0  0  0  0  0  0
    5.0290    0.4410   -1.7960 C   0  0  0  0  0  0  0  0  0  0  0  0
    4.0000   -0.1280   -2.5070 C   0  0  0  0  0  0  0  0  0  0  0  0
    2.7440   -0.3390   -1.9660 C   0  0  0  0  0  0  0  0  0  0  0  0
    2.5190    0.0380   -0.6660 C   0  0  0  0  0  0  0  0  0  0  0  0
    1.2040   -0.1650   -0.0500 C   0  0  0  0  0  0  0  0  0  0  0  0
    0.1740   -0.7010   -0.6600 C   0  0  0  0  0  0  0  0  0  0  0  0
   -1.0560   -0.8490    0.0350 N   0  0  0  0  0  0  0  0  0  0  0  0
   -2.1980   -0.1860   -0.4730 C   0  0  0  0  0  0  0  0  0  0  0  0
   -3.3820   -0.4630   -0.0470 N   0  0  0  0  0  0  0  0  0  0  0  0
   -4.5400    0.1850   -0.5370 C   0  0  0  0  0  0  0  0  0  0  0  0
   -4.9610    1.4250   -0.3560 C   0  0  0  0  0  0  0  0  0  0  0  0
   -6.2390    1.5870   -1.0960 C   0  0  0  0  0  0  0  0  0  0  0  0
   -6.7120    0.3070   -1.2690 O   0  0  0  0  0  0  0  0  0  0  0  0
   -5.5550   -0.4590   -1.4030 C   0  0  0  0  0  0  0  0  0  0  0  0
   -1.1070   -1.6620    1.2270 C   0  0  0  0  0  0  0  0  0  0  0  0
   -2.4460   -1.7390    1.8420 C   0  0  0  0  0  0  0  0  0  0  0  0
   -3.3680   -2.7300    1.5880 C   0  0  0  0  0  0  0  0  0  0  0  0
   -4.4900   -2.4740    2.3360 C   0  0  0  0  0  0  0  0  0  0  0  0
   -4.2070   -1.3150    3.0320 C   0  0  0  0  0  0  0  0  0  0  0  0
   -2.9980   -0.9320    2.7030 O   0  0  0  0  0  0  0  0  0  0  0  0
    3.5430    0.6090    0.0510 C   0  0  0  0  0  0  0  0  0  0  0  0
  1  2  1  0
  2  3  1  0
  2  4  1  0
  4  5  2  0
  4 25  1  0
  5  6  1  0
  6  7  2  0
  7  8  1  0
  8  9  1  0
  8 25  2  0
  9 10  2  3
 10 11  1  0
 11 12  1  0
 11 19  1  0
 12 13  2  3
 13 14  1  0
 14 15  2  0
 14 18  1  0
 15 16  1  0
 16 17  1  0
 17 18  1  0
 19 20  1  0
 20 21  2  0
 20 24  1  0
 21 22  1  0
 22 23  2  0
 23 24  1  0
M  END
