
     RDKit          3D

 16 17  0  0  0  0  0  0  0  0999 V2000
    4.5820   -0.4460    1.2880 C   0  0  0  0  0  0  0  0  0  0  0  0
    3.1800   -0.3530    1.1100 O   0  0  0  0  0  0  0  0  0  0  0  0
    2.5540   -0.2890   -0.1030 C   0  0  0  0  0  0  0  0  0  0  0  0
    3.2430   -0.3140   -1.1540 O   0  0  0  0  0  0  0  0  0  0  0  0
    1.1030   -0.1940   -0.2060 C   0  0  0  0  0  0  0  0  0  0  0  0
    0.1870   -0.1540    0.7770 N   0  0  0  0  0  0  0  0  0  0  0  0
   -1.0540   -0.0650    0.3100 C   0  0  0  0  0  0  0  0  0  0  0  0
   -2.2740    0.0020    0.9390 C   0  0  0  0  0  0  0  0  0  0  0  0
   -3.4590    0.0920    0.2100 C   0  0  0  0  0  0  0  0  0  0  0  0
   -4.7020    0.1600    0.8270 O   0  0  0  0  0  0  0  0  0  0  0  0
   -3.3850    0.1140   -1.1790 C   0  0  0  0  0  0  0  0  0  0  0  0
   -2.1550    0.0470   -1.8140 C   0  0  0  0  0  0  0  0  0  0  0  0
   -2.0140    0.0710   -3.5540 Cl  0  0  0  0  0  0  0  0  0  0  0  0
   -0.9900   -0.0430   -1.0640 C   0  0  0  0  0  0  0  0  0  0  0  0
    0.3630   -0.1240   -1.3780 C   0  0  0  0  0  0  0  0  0  0  0  0
    0.9590   -0.1310   -3.0240 Cl  0  0  0  0  0  0  0  0  0  0  0  0
  1  2  1  0
  2  3  1  0
  3  4  2  0
  3  5  1  0
  5  6  1  0
  5 15  2  0
  6  7  1  0
  7  8  2  0
  7 14  1  0
  8  9  1  0
  9 10  1  0
  9 11  2  0
 11 12  1  0
 12 13  1  0
 12 14  2  0
 14 15  1  0
 15 16  1  0
M  END
