
     RDKit          3D

 25 28  0  0  0  0  0  0  0  0999 V2000
    5.4750   -0.3270   -0.8840 C   0  0  0  0  0  0  0  0  0  0  0  0
    4.3890    0.6660   -1.3150 C   0  0  0  0  0  0  0  0  0  0  0  0
    3.6010    1.0660   -0.1660 N   0  0  0  0  0  0  0  0  0  0  0  0
    2.6240    0.3280    0.2660 C   0  0  0  0  0  0  0  0  0  0  0  0
    1.6250    0.2990    1.2890 C   0  0  0  0  0  0  0  0  0  0  0  0
    0.6710    1.0600    1.7200 C   0  0  0  0  0  0  0  0  0  0  0  0
    0.2160    2.3990    1.2420 C   0  0  0  0  0  0  0  0  0  0  0  0
   -1.3170    2.3110    1.1300 C   0  0  1  0  0  0  0  0  0  0  0  0
   -1.8260    3.2720    0.1160 C   0  0  0  0  0  0  0  0  0  0  0  0
   -2.5350    2.6050   -1.0140 C   0  0  0  0  0  0  0  0  0  0  0  0
   -3.4170    1.6810   -0.5130 O   0  0  0  0  0  0  0  0  0  0  0  0
   -2.8100    0.5600    0.0480 C   0  0  1  0  0  0  0  0  0  0  0  0
   -3.9150   -0.2070    0.7360 C   0  0  0  0  0  0  0  0  0  0  0  0
   -3.5980   -1.6250    1.0310 C   0  0  0  0  0  0  0  0  0  0  0  0
   -3.0380   -2.3730   -0.1720 C   0  0  0  0  0  0  0  0  0  0  0  0
   -1.7640   -1.5620   -0.5470 C   0  0  2  0  0  0  0  0  0  0  0  0
   -2.3190   -0.2840   -1.1050 C   0  0  0  0  0  0  0  0  0  0  0  0
   -0.9600   -2.2930   -1.4680 N   0  0  0  0  0  0  0  0  0  0  0  0
    0.4440   -2.1520   -1.5200 C   0  0  0  0  0  0  0  0  0  0  0  0
    1.1650   -3.1990   -1.6980 O   0  0  0  0  0  0  0  0  0  0  0  0
    1.2010   -0.8950   -1.3930 C   0  0  0  0  0  0  0  0  0  0  0  0
    2.3410   -0.9950   -0.4290 C   0  0  2  0  0  0  0  0  0  0  0  0
    2.1750   -1.9430    0.6970 C   0  0  0  0  0  0  0  0  0  0  0  0
    1.8870   -1.0980    1.9050 C   0  0  0  0  0  0  0  0  0  0  0  0
   -1.6700    0.8830    0.9400 C   0  0  0  0  0  0  0  0  0  0  0  0
  1  2  1  0
  2  3  1  0
  3  4  2  3
  4  5  1  0
  4 22  1  0
  5  6  2  0
  5 24  1  0
  6  7  1  0
  8  7  1  6
  8  9  1  0
  8 25  1  0
  9 10  1  0
 10 11  1  0
 11 12  1  0
 12 13  1  1
 12 17  1  0
 12 25  1  0
 13 14  1  0
 14 15  1  0
 16 15  1  6
 16 17  1  0
 16 18  1  0
 18 19  1  0
 19 20  2  0
 19 21  1  0
 22 21  1  1
 22 23  1  0
 23 24  1  0
M  CHG  1   3   1
M  END
