
     RDKit          3D

 28 31  0  0  0  0  0  0  0  0999 V2000
    2.8210    1.3770    1.6300 O   0  0  0  0  0  0  0  0  0  0  0  0
    1.6480    1.3770    0.9150 C   0  0  0  0  0  0  0  0  0  0  0  0
    1.4280    2.4310    0.0420 C   0  0  0  0  0  0  0  0  0  0  0  0
    0.2670    2.4910   -0.6950 C   0  0  0  0  0  0  0  0  0  0  0  0
    0.1180    3.5670   -1.5380 O   0  0  0  0  0  0  0  0  0  0  0  0
   -0.7440    1.5350   -0.6290 C   0  0  0  0  0  0  0  0  0  0  0  0
   -1.9460    1.5960   -1.4460 C   0  0  0  0  0  0  0  0  0  0  0  0
   -2.1820    2.5040   -2.4900 C   0  0  0  0  0  0  0  0  0  0  0  0
   -3.4510    2.2690   -2.9990 C   0  0  0  0  0  0  0  0  0  0  0  0
   -3.9460    1.2680   -2.2890 N   0  0  0  0  0  0  0  0  0  0  0  0
   -3.0370    0.8620   -1.3510 N   0  0  0  0  0  0  0  0  0  0  0  0
   -3.3930   -0.1950   -0.4750 C   0  0  0  0  0  0  0  0  0  0  0  0
   -3.8800    0.0810    0.7910 C   0  0  0  0  0  0  0  0  0  0  0  0
   -4.2640   -0.9340    1.6390 C   0  0  0  0  0  0  0  0  0  0  0  0
   -4.1860   -2.2660    1.2790 C   0  0  0  0  0  0  0  0  0  0  0  0
   -3.7050   -2.5580    0.0230 C   0  0  0  0  0  0  0  0  0  0  0  0
   -3.3190   -1.5450   -0.8280 C   0  0  0  0  0  0  0  0  0  0  0  0
   -2.7120   -1.9380   -2.4120 Cl  0  0  0  0  0  0  0  0  0  0  0  0
   -0.4990    0.5050    0.2400 C   0  0  0  0  0  0  0  0  0  0  0  0
    0.6800    0.4100    1.0120 C   0  0  0  0  0  0  0  0  0  0  0  0
    0.8730   -0.7810    1.8750 C   0  0  0  0  0  0  0  0  0  0  0  0
    1.6320   -1.8840    1.2260 C   0  0  0  0  0  0  0  0  0  0  0  0
    2.9960   -1.5660    0.7710 C   0  0  0  0  0  0  0  0  0  0  0  0
    3.1780   -1.0740   -0.5030 C   0  0  0  0  0  0  0  0  0  0  0  0
    4.4290   -0.7750   -0.9520 C   0  0  0  0  0  0  0  0  0  0  0  0
    5.5220   -0.9640   -0.1380 C   0  0  0  0  0  0  0  0  0  0  0  0
    5.2900   -1.4610    1.1370 C   0  0  0  0  0  0  0  0  0  0  0  0
    4.0620   -1.7460    1.5560 N   0  0  0  0  0  0  0  0  0  0  0  0
  1  2  1  0
  2  3  2  0
  2 20  1  0
  3  4  1  0
  4  5  1  0
  4  6  2  0
  6  7  1  0
  6 19  1  0
  7  8  2  0
  7 11  1  0
  8  9  1  0
  9 10  2  0
 10 11  1  0
 11 12  1  0
 12 13  2  0
 12 17  1  0
 13 14  1  0
 14 15  2  0
 15 16  1  0
 16 17  2  0
 17 18  1  0
 19 20  2  0
 20 21  1  0
 21 22  1  0
 22 23  1  0
 23 24  2  0
 23 28  1  0
 24 25  1  0
 25 26  2  0
 26 27  1  0
 27 28  2  0
M  END
