
     RDKit          3D

 32 35  0  0  0  0  0  0  0  0999 V2000
    2.0010   -4.6640   -0.8130 O   0  0  0  0  0  0  0  0  0  0  0  0
    2.5250   -3.3980   -1.0300 C   0  0  0  0  0  0  0  0  0  0  0  0
    1.7330   -2.3890   -0.2310 C   0  0  1  0  0  0  0  0  0  0  0  0
    2.1790   -1.0960   -0.3820 O   0  0  0  0  0  0  0  0  0  0  0  0
    1.6630   -0.3050    0.6210 C   0  0  1  0  0  0  0  0  0  0  0  0
    2.0680    1.4160    0.2010 S   0  0  0  0  0  0  0  0  0  0  0  0
    3.8240    1.6710    0.2700 C   0  0  0  0  0  0  0  0  0  0  0  0
    4.3360    2.9280   -0.0270 C   0  0  0  0  0  0  0  0  0  0  0  0
    5.6910    3.0830    0.0380 C   0  0  0  0  0  0  0  0  0  0  0  0
    6.5430    2.0530    0.3820 C   0  0  0  0  0  0  0  0  0  0  0  0
    6.0290    0.7990    0.6780 C   0  0  0  0  0  0  0  0  0  0  0  0
    7.1070   -0.5100    1.1160 Cl  0  0  0  0  0  0  0  0  0  0  0  0
    4.6450    0.6200    0.6170 C   0  0  0  0  0  0  0  0  0  0  0  0
    0.2060   -0.4030    0.8590 C   0  0  2  0  0  0  0  0  0  0  0  0
    0.0240   -0.3520    2.2650 O   0  0  0  0  0  0  0  0  0  0  0  0
   -0.4820   -1.6350    0.3940 C   0  0  1  0  0  0  0  0  0  0  0  0
   -1.8260   -1.2430   -0.0600 N   0  0  0  0  0  0  0  0  0  0  0  0
   -2.5440   -0.1900    0.3420 C   0  0  0  0  0  0  0  0  0  0  0  0
   -3.7440   -0.1690   -0.3210 C   0  0  0  0  0  0  0  0  0  0  0  0
   -4.8040    0.8140   -0.1710 C   0  0  0  0  0  0  0  0  0  0  0  0
   -5.9430    0.7000   -0.9230 C   0  0  0  0  0  0  0  0  0  0  0  0
   -6.9910    1.6160   -0.8160 C   0  0  0  0  0  0  0  0  0  0  0  0
   -8.1230    1.5260   -1.5450 F   0  0  0  0  0  0  0  0  0  0  0  0
   -6.8490    2.6580    0.0810 C   0  0  0  0  0  0  0  0  0  0  0  0
   -7.8400    3.5800    0.2250 F   0  0  0  0  0  0  0  0  0  0  0  0
   -5.7180    2.7980    0.8470 C   0  0  0  0  0  0  0  0  0  0  0  0
   -5.6290    3.8280    1.7040 F   0  0  0  0  0  0  0  0  0  0  0  0
   -4.7090    1.8700    0.7090 C   0  0  0  0  0  0  0  0  0  0  0  0
   -3.7170   -1.2510   -1.1370 N   0  0  0  0  0  0  0  0  0  0  0  0
   -2.5700   -1.8680   -0.9610 N   0  0  0  0  0  0  0  0  0  0  0  0
    0.2620   -2.3690   -0.6730 C   0  0  1  0  0  0  0  0  0  0  0  0
    0.2370   -1.6340   -1.8640 O   0  0  0  0  0  0  0  0  0  0  0  0
  1  2  1  0
  3  2  1  6
  3  4  1  0
  3 31  1  0
  4  5  1  0
  5  6  1  6
  5 14  1  0
  6  7  1  0
  7  8  2  0
  7 13  1  0
  8  9  1  0
  9 10  2  0
 10 11  1  0
 11 12  1  0
 11 13  2  0
 14 15  1  1
 14 16  1  0
 16 17  1  6
 16 31  1  0
 17 18  1  0
 17 30  1  0
 18 19  2  0
 19 20  1  0
 19 29  1  0
 20 21  2  0
 20 28  1  0
 21 22  1  0
 22 23  1  0
 22 24  2  0
 24 25  1  0
 24 26  1  0
 26 27  1  0
 26 28  2  0
 29 30  2  0
 31 32  1  6
M  END
