
     RDKit          3D

 32 35  0  0  0  0  0  0  0  0999 V2000
    9.8080    1.4230    0.1640 C   0  0  0  0  0  0  0  0  0  0  0  0
    8.7600    0.6210    0.2420 C   0  0  0  0  0  0  0  0  0  0  0  0
    7.5750    0.8800   -0.3800 C   0  0  0  0  0  0  0  0  0  0  0  0
    6.4920    0.0440   -0.3020 C   0  0  0  0  0  0  0  0  0  0  0  0
    5.2230    0.3300   -0.9380 C   0  0  0  0  0  0  0  0  0  0  0  0
    4.0860    0.2250   -0.0260 N   0  0  1  0  0  0  0  0  0  0  0  0
    4.2270    1.1480    1.0850 C   0  0  0  0  0  0  0  0  0  0  0  0
    3.7970    0.5880    2.4060 C   0  0  0  0  0  0  0  0  0  0  0  0
    2.3290    0.2400    2.4630 C   0  0  0  0  0  0  0  0  0  0  0  0
    1.4390    1.2260    1.8210 C   0  0  0  0  0  0  0  0  0  0  0  0
    0.7970    0.7850    0.5230 C   0  0  2  0  0  0  0  0  0  0  0  0
   -0.5430    0.2940    0.7500 N   0  0  2  0  0  0  0  0  0  0  0  0
   -0.5980   -0.8280    1.6720 C   0  0  0  0  0  0  0  0  0  0  0  0
   -2.0480   -1.0910    1.9670 C   0  0  0  0  0  0  0  0  0  0  0  0
   -2.9960   -0.1680    1.2460 C   0  0  0  0  0  0  0  0  0  0  0  0
   -2.7340   -0.1830   -0.2460 C   0  0  2  0  0  0  0  0  0  0  0  0
   -3.2540   -1.3620   -0.8270 N   0  0  0  0  0  0  0  0  0  0  0  0
   -4.5730   -1.3340   -1.3650 C   0  0  2  0  0  0  0  0  0  0  0  0
   -4.6940   -0.7310   -2.7170 C   0  0  0  0  0  0  0  0  0  0  0  0
   -6.1580   -0.4350   -2.8590 C   0  0  0  0  0  0  0  0  0  0  0  0
   -6.7980   -0.6450   -1.5310 C   0  0  2  0  0  0  0  0  0  0  0  0
   -7.7720    0.3670   -1.1710 N   0  0  2  0  0  0  0  0  0  0  0  0
   -8.7980   -0.3140   -0.3710 C   0  0  0  0  0  0  0  0  0  0  0  0
   -8.4460    0.9360   -2.3250 C   0  0  0  0  0  0  0  0  0  0  0  0
   -5.6350   -0.6890   -0.5620 C   0  0  0  0  0  0  0  0  0  0  0  0
   -1.2390   -0.0190   -0.4520 C   0  0  0  0  0  0  0  0  0  0  0  0
    1.6630   -0.0880   -0.3090 C   0  0  0  0  0  0  0  0  0  0  0  0
    2.9130    0.6360   -0.7710 C   0  0  0  0  0  0  0  0  0  0  0  0
    6.6690   -1.0920    0.4520 C   0  0  0  0  0  0  0  0  0  0  0  0
    7.8190   -1.3650    1.0700 N   0  0  0  0  0  0  0  0  0  0  0  0
    8.9380   -0.5470    1.0180 C   0  0  0  0  0  0  0  0  0  0  0  0
    9.9850   -0.8260    1.6250 C   0  0  0  0  0  0  0  0  0  0  0  0
  1  2  2  0
  2  3  1  0
  2 31  1  0
  3  4  2  0
  4  5  1  0
  4 29  1  0
  6  5  1  6
  6  7  1  0
  6 28  1  0
  7  8  1  0
  8  9  1  0
  9 10  1  0
 11 10  1  1
 11 12  1  0
 11 27  1  0
 12 13  1  1
 12 26  1  0
 13 14  1  0
 14 15  1  0
 15 16  1  0
 16 17  1  1
 16 26  1  0
 18 17  1  1
 18 19  1  0
 18 25  1  0
 19 20  1  0
 21 20  1  6
 21 22  1  0
 21 25  1  0
 22 23  1  1
 22 24  1  0
 27 28  1  0
 29 30  2  0
 30 31  1  0
 31 32  2  0
M  CHG  4   6   1  12   1  17   1  22   1
M  END
