
     RDKit          3D

 33 35  0  0  0  0  0  0  0  0999 V2000
   -0.9020    3.3850   -1.0800 C   0  0  0  0  0  0  0  0  0  0  0  0
   -1.4020    1.9470   -0.9870 C   0  0  0  0  0  0  0  0  0  0  0  0
   -2.6920    1.8130   -1.2890 C   0  0  0  0  0  0  0  0  0  0  0  0
   -3.3800    0.5130   -1.2630 C   0  0  0  0  0  0  0  0  0  0  0  0
   -4.8140    0.3160   -1.3460 C   0  0  0  0  0  0  0  0  0  0  0  0
   -5.5940   -0.7700   -0.8390 C   0  0  0  0  0  0  0  0  0  0  0  0
   -5.6040   -1.8450   -0.1990 C   0  0  0  0  0  0  0  0  0  0  0  0
   -4.6580   -2.7150    0.5060 C   0  0  0  0  0  0  0  0  0  0  0  0
   -5.3180   -2.8980    2.2200 Cl  0  0  0  0  0  0  0  0  0  0  0  0
   -7.0160   -2.5120   -0.0790 C   0  0  0  0  0  0  0  0  0  0  0  0
   -7.1070   -3.6960    0.6110 N   0  0  0  0  0  0  0  0  0  0  0  0
   -7.9750   -1.9450   -0.6060 O   0  0  0  0  0  0  0  0  0  0  0  0
   -5.5540    1.2920   -1.9350 C   0  0  0  0  0  0  0  0  0  0  0  0
   -5.2090    2.5350   -2.5330 C   0  0  0  0  0  0  0  0  0  0  0  0
   -6.9660    0.9930   -1.9470 O   0  0  0  0  0  0  0  0  0  0  0  0
   -2.5320   -0.4540   -0.8930 C   0  0  0  0  0  0  0  0  0  0  0  0
   -1.1280   -0.3540   -0.5290 C   0  0  0  0  0  0  0  0  0  0  0  0
   -0.5630    0.9310   -0.6310 N   0  0  2  0  0  0  0  0  0  0  0  0
    0.2480    1.2610    0.5590 C   0  0  0  0  0  0  0  0  0  0  0  0
    1.6360    0.8110    0.3040 C   0  0  0  0  0  0  0  0  0  0  0  0
    1.9630    0.2480   -0.7960 O   0  0  0  0  0  0  0  0  0  0  0  0
    2.6860    0.9660    1.2360 N   0  0  0  0  0  0  0  0  0  0  0  0
    4.0130    0.5210    0.9440 C   0  0  0  0  0  0  0  0  0  0  0  0
    4.6300   -0.0180    0.0410 N   0  0  0  0  0  0  0  0  0  0  0  0
    5.8890   -0.2940    0.1040 N   0  0  0  0  0  0  0  0  0  0  0  0
    6.6230   -0.0770    1.0150 C   0  0  0  0  0  0  0  0  0  0  0  0
    8.0040   -0.2090    1.4820 C   0  0  0  0  0  0  0  0  0  0  0  0
    8.4520    0.2080    2.7190 C   0  0  0  0  0  0  0  0  0  0  0  0
    9.7680    0.0550    3.0930 C   0  0  0  0  0  0  0  0  0  0  0  0
   10.6620   -0.5210    2.2250 C   0  0  0  0  0  0  0  0  0  0  0  0
   10.2420   -0.9490    0.9750 C   0  0  0  0  0  0  0  0  0  0  0  0
    8.9290   -0.7800    0.6420 C   0  0  0  0  0  0  0  0  0  0  0  0
    5.3780    0.7340    2.1990 S   0  0  0  0  0  0  0  0  0  0  0  0
  1  2  1  0
  2  3  2  0
  2 18  1  0
  3  4  1  0
  4  5  1  0
  4 16  2  0
  5  6  1  0
  5 13  2  3
  6  7  2  3
  7  8  1  0
  7 10  1  0
  8  9  1  0
 10 11  1  0
 10 12  2  0
 13 14  1  0
 13 15  1  0
 16 17  1  0
 17 18  1  0
 18 19  1  1
 19 20  1  0
 20 21  2  0
 20 22  1  0
 22 23  1  0
 23 24  2  0
 23 33  1  0
 24 25  1  0
 25 26  2  0
 26 27  1  0
 26 33  1  0
 27 28  2  0
 27 32  1  0
 28 29  1  0
 29 30  2  0
 30 31  1  0
 31 32  2  0
M  CHG  1  18   1
M  END
