
     RDKit          3D

 33 35  0  0  0  0  0  0  0  0999 V2000
   -6.1430   -2.1660   -2.9110 C   0  0  0  0  0  0  0  0  0  0  0  0
   -6.1500   -2.0460   -1.4060 C   0  0  0  0  0  0  0  0  0  0  0  0
   -6.9850   -2.8030   -0.6420 C   0  0  0  0  0  0  0  0  0  0  0  0
   -6.9540   -2.6590    0.7210 C   0  0  0  0  0  0  0  0  0  0  0  0
   -6.1170   -1.7910    1.2670 N   0  0  0  0  0  0  0  0  0  0  0  0
   -5.2530   -1.0030    0.5550 C   0  0  0  0  0  0  0  0  0  0  0  0
   -4.3870   -0.1770    1.2750 N   0  0  0  0  0  0  0  0  0  0  0  0
   -3.3510    0.6890    0.8910 C   0  0  0  0  0  0  0  0  0  0  0  0
   -2.6130    0.5080   -0.2330 C   0  0  0  0  0  0  0  0  0  0  0  0
   -1.5490    1.3440   -0.5260 C   0  0  0  0  0  0  0  0  0  0  0  0
   -0.6150    1.1040   -1.9700 S   0  0  2  0  0  0  0  0  0  0  0  0
   -0.7070    2.3090   -2.8420 O   0  0  0  0  0  0  0  0  0  0  0  0
   -1.1010   -0.0760   -2.7540 O   0  0  0  0  0  0  0  0  0  0  0  0
    1.0340    0.8070   -1.4860 N   0  0  0  0  0  0  0  0  0  0  0  0
    1.1050   -0.3760   -0.6880 C   0  0  0  0  0  0  0  0  0  0  0  0
    2.5240   -0.6120   -0.2790 C   0  0  0  0  0  0  0  0  0  0  0  0
    2.7380   -1.6250    0.4190 O   0  0  0  0  0  0  0  0  0  0  0  0
    3.5370    0.2710   -0.6700 N   0  0  0  0  0  0  0  0  0  0  0  0
    4.9050    0.1350   -0.3360 C   0  0  0  0  0  0  0  0  0  0  0  0
    5.4620   -0.8650    0.4110 C   0  0  0  0  0  0  0  0  0  0  0  0
    6.8380   -0.9270    0.6980 C   0  0  0  0  0  0  0  0  0  0  0  0
    7.3340   -2.0020    1.4840 N   0  0  0  0  0  0  0  0  0  0  0  0
    7.7040    0.0300    0.2330 C   0  0  0  0  0  0  0  0  0  0  0  0
    9.1620    0.0020    0.5130 C   0  0  0  0  0  0  0  0  0  0  0  0
    7.1490    1.0380   -0.5190 C   0  0  0  0  0  0  0  0  0  0  0  0
    5.8050    1.1050   -0.8040 C   0  0  0  0  0  0  0  0  0  0  0  0
    5.1410    2.4150   -1.7720 Cl  0  0  0  0  0  0  0  0  0  0  0  0
   -1.2420    2.3650    0.3380 C   0  0  0  0  0  0  0  0  0  0  0  0
   -0.1180    3.2730    0.0590 C   0  0  0  0  0  0  0  0  0  0  0  0
   -1.9810    2.5640    1.4900 C   0  0  0  0  0  0  0  0  0  0  0  0
   -3.0240    1.7290    1.7560 C   0  0  0  0  0  0  0  0  0  0  0  0
   -3.8530    1.9180    2.9990 C   0  0  0  0  0  0  0  0  0  0  0  0
   -5.2950   -1.1550   -0.8000 C   0  0  0  0  0  0  0  0  0  0  0  0
  1  2  1  0
  2  3  2  0
  2 33  1  0
  3  4  1  0
  4  5  2  0
  5  6  1  0
  6  7  1  0
  6 33  2  0
  7  8  1  0
  8  9  2  0
  8 31  1  0
  9 10  1  0
 10 11  1  0
 10 28  2  0
 11 12  2  0
 11 13  2  0
 11 14  1  1
 14 15  1  0
 15 16  1  0
 16 17  2  0
 16 18  1  0
 18 19  1  0
 19 20  2  0
 19 26  1  0
 20 21  1  0
 21 22  1  0
 21 23  2  0
 23 24  1  0
 23 25  1  0
 25 26  2  0
 26 27  1  0
 28 29  1  0
 28 30  1  0
 30 31  2  0
 31 32  1  0
M  CHG  1   5   1
M  END
