
     RDKit          3D

 18 18  0  0  0  0  0  0  0  0999 V2000
    4.6540    1.4730   -1.1360 C   0  0  0  0  0  0  0  0  0  0  0  0
    4.1880    1.0330    0.2120 C   0  0  0  0  0  0  0  0  0  0  0  0
    2.6540    0.8390    0.2290 C   0  0  0  0  0  0  0  0  0  0  0  0
    2.2540   -0.2020   -0.7670 C   0  0  0  0  0  0  0  0  0  0  0  0
    0.8980   -0.5200   -0.9270 N   0  0  0  0  0  0  0  0  0  0  0  0
    0.9240   -1.5880   -1.9660 C   0  0  0  0  0  0  0  0  0  0  0  0
    1.6240   -2.7610   -1.3800 C   0  0  0  0  0  0  0  0  0  0  0  0
    1.5450   -3.0100    0.0590 C   0  0  0  0  0  0  0  0  0  0  0  0
    0.8010   -2.0410    0.9290 C   0  0  0  0  0  0  0  0  0  0  0  0
    0.0910   -1.0210    0.0990 C   0  0  1  0  0  0  0  0  0  0  0  0
   -0.8570   -0.1080    0.8140 C   0  0  2  0  0  0  0  0  0  0  0  0
   -0.2910    1.0680    1.5290 C   0  0  0  0  0  0  0  0  0  0  0  0
   -1.5290   -0.9330    1.8830 C   0  0  0  0  0  0  0  0  0  0  0  0
   -1.8980    0.3670   -0.1680 C   0  0  0  0  0  0  0  0  0  0  0  0
   -2.8940    1.2430    0.2540 N   0  0  0  0  0  0  0  0  0  0  0  0
   -3.8870    0.6680    1.0970 C   0  0  0  0  0  0  0  0  0  0  0  0
   -3.5280    1.8740   -0.8810 C   0  0  0  0  0  0  0  0  0  0  0  0
   -4.6080    2.8260   -0.5000 C   0  0  0  0  0  0  0  0  0  0  0  0
  1  2  1  0
  2  3  1  0
  3  4  1  0
  4  5  1  0
  5  6  1  0
  5 10  1  0
  6  7  1  0
  7  8  1  0
  8  9  1  0
 10  9  1  1
 10 11  1  0
 11 12  1  1
 11 13  1  0
 11 14  1  0
 14 15  1  0
 15 16  1  0
 15 17  1  0
 17 18  1  0
M  END
