
     RDKit          3D

 22 23  0  0  0  0  0  0  0  0999 V2000
   -2.2410    2.6330   -2.5870 C   0  0  0  0  0  0  0  0  0  0  0  0
   -2.2370    1.2430   -2.0860 C   0  0  0  0  0  0  0  0  0  0  0  0
   -1.4860    1.2050   -0.6390 C   0  0  0  0  0  0  0  0  0  0  0  0
   -1.5780   -0.2120   -0.3150 C   0  0  0  0  0  0  0  0  0  0  0  0
   -0.6070   -0.9910    0.1020 C   0  0  0  0  0  0  0  0  0  0  0  0
    0.6610   -0.5120    0.3270 C   0  0  0  0  0  0  0  0  0  0  0  0
    1.6540   -1.3890    0.5510 C   0  0  0  0  0  0  0  0  0  0  0  0
    3.1160   -1.2660    0.8070 C   0  0  0  0  0  0  0  0  0  0  0  0
    4.0070   -0.3270    0.5060 C   0  0  0  0  0  0  0  0  0  0  0  0
    5.2800   -0.6200    0.9340 O   0  0  0  0  0  0  0  0  0  0  0  0
    3.8990    0.9790   -0.2020 C   0  0  0  0  0  0  0  0  0  0  0  0
    5.0220    1.3210   -0.9690 N   0  0  0  0  0  0  0  0  0  0  0  0
    2.9180    1.9060   -0.2210 C   0  0  0  0  0  0  0  0  0  0  0  0
    1.6020    1.9040    0.4830 C   0  0  0  0  0  0  0  0  0  0  0  0
    0.7310    0.9340    0.6910 C   0  0  0  0  0  0  0  0  0  0  0  0
   -0.2820    1.3760    1.7280 C   0  0  0  0  0  0  0  0  0  0  0  0
   -0.7930   -2.4780    0.2840 C   0  0  0  0  0  0  0  0  0  0  0  0
    0.0600   -3.2020   -0.3440 O   0  0  0  0  0  0  0  0  0  0  0  0
   -1.8320   -3.1420    1.0850 C   0  0  0  0  0  0  0  0  0  0  0  0
   -3.0180   -2.2470    1.3620 C   0  0  0  0  0  0  0  0  0  0  0  0
   -3.6390   -1.7010    0.1290 C   0  0  0  0  0  0  0  0  0  0  0  0
   -2.9380   -0.6730   -0.5180 O   0  0  0  0  0  0  0  0  0  0  0  0
  1  2  1  0
  2  3  1  0
  3  4  1  0
  4  5  2  0
  4 22  1  0
  5  6  1  0
  5 17  1  0
  6  7  2  0
  6 15  1  0
  7  8  1  0
  8  9  2  0
  9 10  1  0
  9 11  1  0
 11 12  1  0
 11 13  2  0
 13 14  1  0
 14 15  2  0
 15 16  1  0
 17 18  2  0
 17 19  1  0
 19 20  1  0
 20 21  1  0
 21 22  1  0
M  END
