
     RDKit          3D

 22 24  0  0  0  0  0  0  0  0999 V2000
    5.0930    1.3250   -0.0340 C   0  0  0  0  0  0  0  0  0  0  0  0
    4.0880    0.5490    0.5600 O   0  0  0  0  0  0  0  0  0  0  0  0
    3.8360   -0.7710    0.2460 C   0  0  0  0  0  0  0  0  0  0  0  0
    4.9210   -1.7520    0.3110 C   0  0  0  0  0  0  0  0  0  0  0  0
    2.6280   -1.1300   -0.1050 C   0  0  0  0  0  0  0  0  0  0  0  0
    1.4810   -0.2370   -0.2000 C   0  0  0  0  0  0  0  0  0  0  0  0
    1.6810    1.0090   -0.7030 C   0  0  0  0  0  0  0  0  0  0  0  0
    0.8830    2.1370   -0.4750 C   0  0  0  0  0  0  0  0  0  0  0  0
    1.4830    3.2350   -0.4750 O   0  0  0  0  0  0  0  0  0  0  0  0
   -0.4510    2.1450   -0.2610 N   0  0  0  0  0  0  0  0  0  0  0  0
   -1.2990    1.0910   -0.0950 C   0  0  0  0  0  0  0  0  0  0  0  0
   -2.6340    1.4340   -0.1730 C   0  0  0  0  0  0  0  0  0  0  0  0
   -3.6420    0.4960   -0.0300 C   0  0  0  0  0  0  0  0  0  0  0  0
   -4.9810    0.8490   -0.1100 C   0  0  0  0  0  0  0  0  0  0  0  0
   -5.9630   -0.1100    0.0380 C   0  0  0  0  0  0  0  0  0  0  0  0
   -5.6760   -1.4370    0.2670 C   0  0  0  0  0  0  0  0  0  0  0  0
   -4.3510   -1.7840    0.3460 C   0  0  0  0  0  0  0  0  0  0  0  0
   -3.3460   -0.8300    0.1990 C   0  0  0  0  0  0  0  0  0  0  0  0
   -2.0110   -1.1690    0.2770 C   0  0  0  0  0  0  0  0  0  0  0  0
   -1.0020   -0.2380    0.1350 C   0  0  0  0  0  0  0  0  0  0  0  0
    0.2850   -0.7670    0.2470 C   0  0  0  0  0  0  0  0  0  0  0  0
    0.3040   -1.8710    0.8400 O   0  0  0  0  0  0  0  0  0  0  0  0
  1  2  1  0
  2  3  1  0
  3  4  1  0
  3  5  2  3
  5  6  1  0
  6  7  2  0
  6 21  1  0
  7  8  1  0
  8  9  2  0
  8 10  1  0
 10 11  1  0
 11 12  2  0
 11 20  1  0
 12 13  1  0
 13 14  2  0
 13 18  1  0
 14 15  1  0
 15 16  2  0
 16 17  1  0
 17 18  2  0
 18 19  1  0
 19 20  2  0
 20 21  1  0
 21 22  2  0
M  END
