
     RDKit          3D

 18 18  0  0  0  0  0  0  0  0999 V2000
   -5.7720    1.4660    1.4540 C   0  0  0  0  0  0  0  0  0  0  0  0
   -5.6120    0.0160    1.0580 C   0  0  0  0  0  0  0  0  0  0  0  0
   -4.8750   -0.1660   -0.2180 C   0  0  0  0  0  0  0  0  0  0  0  0
   -3.5330    0.3640   -0.2550 N   0  0  0  0  0  0  0  0  0  0  0  0
   -3.0390    0.0990   -1.5940 C   0  0  0  0  0  0  0  0  0  0  0  0
   -1.6010    0.4730   -1.7810 C   0  0  0  0  0  0  0  0  0  0  0  0
   -0.7000   -0.4960   -1.0690 C   0  0  0  0  0  0  0  0  0  0  0  0
   -0.3260   -0.0020    0.2200 N   0  0  0  0  0  0  0  0  0  0  0  0
    0.6190    1.0600    0.2020 C   0  0  0  0  0  0  0  0  0  0  0  0
    2.0100    0.6950   -0.2650 C   0  0  0  0  0  0  0  0  0  0  0  0
    2.5490   -0.3430    0.6430 C   0  0  0  0  0  0  0  0  0  0  0  0
    3.9170   -0.8680    0.3610 C   0  0  2  0  0  0  0  0  0  0  0  0
    4.0260   -1.4920   -1.0170 C   0  0  0  0  0  0  0  0  0  0  0  0
    4.0440   -2.1010    1.3070 C   0  0  0  0  0  0  0  0  0  0  0  0
    5.0540   -0.0010    0.7210 C   0  0  0  0  0  0  0  0  0  0  0  0
    5.1880    1.3270    0.0880 C   0  0  0  0  0  0  0  0  0  0  0  0
   -1.4230    0.4110    1.0250 C   0  0  0  0  0  0  0  0  0  0  0  0
   -2.7410   -0.2580    0.7610 C   0  0  0  0  0  0  0  0  0  0  0  0
  1  2  1  0
  2  3  1  0
  3  4  1  0
  4  5  1  0
  4 18  1  0
  5  6  1  0
  6  7  1  0
  7  8  1  0
  8  9  1  0
  8 17  1  0
  9 10  1  0
 10 11  1  0
 11 12  1  0
 12 13  1  6
 12 14  1  0
 12 15  1  0
 15 16  1  0
 17 18  1  0
M  END
