
     RDKit          3D

 22 24  0  0  0  0  0  0  0  0999 V2000
    5.1050    0.7320    0.7500 C   0  0  0  0  0  0  0  0  0  0  0  0
    3.6770    0.5620    0.2710 C   0  0  1  0  0  0  0  0  0  0  0  0
    3.1660    1.9420   -0.1300 C   0  0  0  0  0  0  0  0  0  0  0  0
    3.6480   -0.4140   -0.8580 C   0  0  0  0  0  0  0  0  0  0  0  0
    2.3330   -0.1760   -1.6020 C   0  0  0  0  0  0  0  0  0  0  0  0
    1.2640   -0.4800   -0.5790 C   0  0  0  0  0  0  0  0  0  0  0  0
    0.0380   -0.8830   -1.0870 C   0  0  0  0  0  0  0  0  0  0  0  0
   -1.0120   -1.1860   -0.2220 C   0  0  0  0  0  0  0  0  0  0  0  0
   -2.2450   -1.6340   -0.8170 C   0  0  0  0  0  0  0  0  0  0  0  0
   -3.4370   -1.1390   -0.6790 C   0  0  0  0  0  0  0  0  0  0  0  0
   -3.7140    0.0140    0.1400 C   0  0  0  0  0  0  0  0  0  0  0  0
   -4.9640    0.5050    0.2690 C   0  0  0  0  0  0  0  0  0  0  0  0
   -5.1770    1.6660    1.1070 C   0  0  0  0  0  0  0  0  0  0  0  0
   -4.2330    2.2290    1.7150 O   0  0  0  0  0  0  0  0  0  0  0  0
   -6.0230   -0.1650   -0.4450 C   0  0  0  0  0  0  0  0  0  0  0  0
   -5.8130   -1.2430   -1.2210 C   0  0  0  0  0  0  0  0  0  0  0  0
   -4.5110   -1.7210   -1.3300 O   0  0  0  0  0  0  0  0  0  0  0  0
   -0.7570   -1.0620    1.1200 C   0  0  0  0  0  0  0  0  0  0  0  0
   -1.6590   -1.3240    1.9640 O   0  0  0  0  0  0  0  0  0  0  0  0
    0.4450   -0.6660    1.5880 N   0  0  0  0  0  0  0  0  0  0  0  0
    1.4900   -0.3630    0.7710 C   0  0  0  0  0  0  0  0  0  0  0  0
    2.7780    0.0630    1.3780 C   0  0  0  0  0  0  0  0  0  0  0  0
  2  1  1  1
  2  3  1  0
  2  4  1  0
  2 22  1  0
  4  5  1  0
  5  6  1  0
  6  7  1  0
  6 21  2  0
  7  8  2  0
  8  9  1  0
  8 18  1  0
  9 10  2  3
 10 11  1  0
 10 17  1  0
 11 12  2  0
 12 13  1  0
 12 15  1  0
 13 14  2  0
 15 16  2  0
 16 17  1  0
 18 19  2  0
 18 20  1  0
 20 21  1  0
 21 22  1  0
M  END
