
     RDKit          3D

 18 17  0  0  0  0  0  0  0  0999 V2000
   -5.9770   -0.7460    1.1840 C   0  0  0  0  0  0  0  0  0  0  0  0
   -6.1200    0.1900    0.0790 N   0  0  1  0  0  0  0  0  0  0  0  0
   -5.9880   -0.5590   -1.1610 C   0  0  0  0  0  0  0  0  0  0  0  0
   -7.4300    0.8150    0.0720 C   0  0  0  0  0  0  0  0  0  0  0  0
   -5.0610    1.1890    0.1210 C   0  0  0  0  0  0  0  0  0  0  0  0
   -3.7590    0.4430   -0.1460 C   0  0  0  0  0  0  0  0  0  0  0  0
   -2.5800    1.3460   -0.1340 C   0  0  0  0  0  0  0  0  0  0  0  0
   -1.3270    0.5630   -0.4340 C   0  0  0  0  0  0  0  0  0  0  0  0
   -1.0890   -0.5010    0.5750 C   0  0  0  0  0  0  0  0  0  0  0  0
    0.1640   -1.2890    0.2920 C   0  0  0  0  0  0  0  0  0  0  0  0
    1.3510   -0.4000    0.3120 C   0  0  0  0  0  0  0  0  0  0  0  0
    2.6470   -1.1690    0.0490 C   0  0  0  0  0  0  0  0  0  0  0  0
    3.7690   -0.1440    0.0980 C   0  0  0  0  0  0  0  0  0  0  0  0
    5.0940   -0.8540   -0.1590 C   0  0  0  0  0  0  0  0  0  0  0  0
    6.1930    0.0600   -0.1250 N   0  0  2  0  0  0  0  0  0  0  0  0
    6.1670    0.9560    1.0000 C   0  0  0  0  0  0  0  0  0  0  0  0
    6.3040    0.8540   -1.3330 C   0  0  0  0  0  0  0  0  0  0  0  0
    7.4150   -0.7460    0.0130 C   0  0  0  0  0  0  0  0  0  0  0  0
  2  1  1  1
  2  3  1  0
  2  4  1  0
  2  5  1  0
  5  6  1  0
  6  7  1  0
  7  8  1  0
  8  9  1  0
  9 10  1  0
 10 11  1  0
 11 12  1  0
 12 13  1  0
 13 14  1  0
 14 15  1  0
 15 16  1  1
 15 17  1  0
 15 18  1  0
M  CHG  2   2   1  15   1
M  END
