
     RDKit          3D

 22 24  0  0  0  0  0  0  0  0999 V2000
    7.8720    0.2450    0.4650 C   0  0  0  0  0  0  0  0  0  0  0  0
    6.4050    0.4090    0.3080 C   0  0  0  0  0  0  0  0  0  0  0  0
    5.7360   -0.4480   -0.4130 C   0  0  0  0  0  0  0  0  0  0  0  0
    4.3090   -0.3130   -0.5820 C   0  0  0  0  0  0  0  0  0  0  0  0
    3.6650   -1.1460   -1.2820 O   0  0  0  0  0  0  0  0  0  0  0  0
    3.6380    0.8280    0.0900 C   0  0  0  0  0  0  0  0  0  0  0  0
    2.2420    0.8510   -0.1510 O   0  0  0  0  0  0  0  0  0  0  0  0
    1.4020   -0.1840    0.2120 C   0  0  0  0  0  0  0  0  0  0  0  0
    1.9260   -1.1750    0.7790 O   0  0  0  0  0  0  0  0  0  0  0  0
   -0.0490   -0.1350   -0.0520 C   0  0  0  0  0  0  0  0  0  0  0  0
   -0.7220    0.8640   -0.6480 N   0  0  0  0  0  0  0  0  0  0  0  0
   -2.0200    0.5860   -0.7270 C   0  0  0  0  0  0  0  0  0  0  0  0
   -2.1930   -0.6550   -0.1540 C   0  0  0  0  0  0  0  0  0  0  0  0
   -0.9590   -1.1130    0.2720 C   0  0  0  0  0  0  0  0  0  0  0  0
   -0.7100   -2.4130    0.9440 C   0  0  0  0  0  0  0  0  0  0  0  0
   -3.5290   -1.2580   -0.0830 C   0  0  0  0  0  0  0  0  0  0  0  0
   -4.6280   -0.2680   -0.0610 C   0  0  0  0  0  0  0  0  0  0  0  0
   -5.8570   -0.3060    0.4220 C   0  0  0  0  0  0  0  0  0  0  0  0
   -6.5400    0.9830    0.1650 C   0  0  0  0  0  0  0  0  0  0  0  0
   -5.5050    1.7640   -0.5430 C   0  0  0  0  0  0  0  0  0  0  0  0
   -4.4010    1.0320   -0.6700 C   0  0  0  0  0  0  0  0  0  0  0  0
   -3.1260    1.3890   -1.2990 C   0  0  0  0  0  0  0  0  0  0  0  0
  1  2  1  0
  2  3  2  3
  3  4  1  0
  4  5  2  0
  4  6  1  0
  6  7  1  0
  7  8  1  0
  8  9  2  0
  8 10  1  0
 10 11  1  0
 10 14  2  0
 11 12  1  0
 12 13  2  0
 12 22  1  0
 13 14  1  0
 13 16  1  0
 14 15  1  0
 16 17  1  0
 17 18  2  0
 17 21  1  0
 18 19  1  0
 19 20  1  0
 20 21  2  0
 21 22  1  0
M  END
