
     RDKit          3D

 25 26  0  0  0  0  0  0  0  0999 V2000
   -1.1220    3.4450   -1.2610 C   0  0  0  0  0  0  0  0  0  0  0  0
   -0.6730    2.3260   -0.3730 C   0  0  0  0  0  0  0  0  0  0  0  0
   -0.2950    2.6430    1.0160 C   0  0  0  0  0  0  0  0  0  0  0  0
   -0.6330    1.0760   -0.8620 C   0  0  0  0  0  0  0  0  0  0  0  0
   -0.2090   -0.0780   -0.0790 C   0  0  1  0  0  0  0  0  0  0  0  0
   -1.2900   -0.5570    0.8490 C   0  0  0  0  0  0  0  0  0  0  0  0
   -1.0560   -1.5110    1.8070 C   0  0  0  0  0  0  0  0  0  0  0  0
    0.1800   -2.2400    2.1410 C   0  0  0  0  0  0  0  0  0  0  0  0
   -2.2460   -1.6920    2.4650 N   0  0  0  0  0  0  0  0  0  0  0  0
   -3.1440   -0.8910    1.9300 N   0  0  0  0  0  0  0  0  0  0  0  0
   -2.5720   -0.1650    0.9110 C   0  0  0  0  0  0  0  0  0  0  0  0
   -3.2700    0.8160    0.1140 C   0  0  0  0  0  0  0  0  0  0  0  0
    0.2490   -1.2140   -0.9170 C   0  0  0  0  0  0  0  0  0  0  0  0
    1.4940   -1.7320   -0.9960 C   0  0  0  0  0  0  0  0  0  0  0  0
    2.6050   -1.2030   -0.4780 N   0  0  0  0  0  0  0  0  0  0  0  0
    3.0290    0.2060   -0.3310 C   0  0  0  0  0  0  0  0  0  0  0  0
    2.3120    1.0170   -0.8310 O   0  0  0  0  0  0  0  0  0  0  0  0
    4.2230    0.2170    0.3940 N   0  0  0  0  0  0  0  0  0  0  0  0
    4.3950    1.9480    0.3860 C   0  0  0  0  0  0  0  0  0  0  0  0
    3.5460    2.5050   -0.1600 O   0  0  0  0  0  0  0  0  0  0  0  0
    1.7260   -2.8990   -1.6740 O   0  0  0  0  0  0  0  0  0  0  0  0
    0.7860   -3.5240   -2.2520 C   0  0  0  0  0  0  0  0  0  0  0  0
   -0.5060   -3.0720   -2.2330 C   0  0  0  0  0  0  0  0  0  0  0  0
   -0.7830   -1.9010   -1.5570 C   0  0  0  0  0  0  0  0  0  0  0  0
   -1.9720   -1.5320   -1.5710 O   0  0  0  0  0  0  0  0  0  0  0  0
  1  2  1  0
  2  3  1  0
  2  4  2  3
  5  4  1  6
  5  6  1  0
  5 13  1  0
  6  7  1  0
  6 11  2  0
  7  8  1  0
  7  9  2  0
  9 10  1  0
 10 11  1  0
 11 12  1  0
 13 14  2  0
 13 24  1  0
 14 15  1  0
 14 21  1  0
 15 16  1  0
 16 17  2  0
 16 18  1  0
 18 19  1  0
 19 20  2  0
 21 22  1  0
 22 23  2  0
 23 24  1  0
 24 25  2  0
M  END
