
     RDKit          3D

 25 26  0  0  0  0  0  0  0  0999 V2000
    4.7780    1.7670    1.5700 C   0  0  0  0  0  0  0  0  0  0  0  0
    4.9770    1.2860    0.3190 C   0  0  0  0  0  0  0  0  0  0  0  0
    5.9570    2.0120   -0.5190 C   0  0  0  0  0  0  0  0  0  0  0  0
    6.1250    1.4570   -1.8470 C   0  0  0  0  0  0  0  0  0  0  0  0
    5.4630    0.4030   -2.2560 C   0  0  0  0  0  0  0  0  0  0  0  0
    4.5120   -0.2890   -1.4130 C   0  0  0  0  0  0  0  0  0  0  0  0
    4.2630    0.1270   -0.1530 C   0  0  0  0  0  0  0  0  0  0  0  0
    3.3050   -0.6130    0.6430 C   0  0  0  0  0  0  0  0  0  0  0  0
    2.7540   -1.6290    0.0910 O   0  0  0  0  0  0  0  0  0  0  0  0
    2.9240   -0.3470    1.9180 O   0  0  0  0  0  0  0  0  0  0  0  0
    1.9590   -1.1580    2.6110 C   0  0  0  0  0  0  0  0  0  0  0  0
    0.7340   -1.1250    1.8980 C   0  0  0  0  0  0  0  0  0  0  0  0
    0.5660   -0.3900    0.8240 O   0  0  0  0  0  0  0  0  0  0  0  0
   -0.4530   -1.8170    2.1600 N   0  0  0  0  0  0  0  0  0  0  0  0
   -1.6140   -1.5340    1.3970 C   0  0  0  0  0  0  0  0  0  0  0  0
   -2.0370   -2.6100    0.8700 N   0  0  0  0  0  0  0  0  0  0  0  0
   -3.1830   -2.6640    0.0810 C   0  0  0  0  0  0  0  0  0  0  0  0
   -3.4140   -3.9600   -0.6180 C   0  0  0  0  0  0  0  0  0  0  0  0
   -3.9550   -1.6440   -0.1600 C   0  0  0  0  0  0  0  0  0  0  0  0
   -3.5840   -0.4080    0.4320 N   0  0  0  0  0  0  0  0  0  0  0  0
   -4.2580    0.8220    0.3280 C   0  0  0  0  0  0  0  0  0  0  0  0
   -4.2350    1.4870   -0.9940 C   0  0  0  0  0  0  0  0  0  0  0  0
   -5.0090    2.7940   -0.8710 C   0  0  0  0  0  0  0  0  0  0  0  0
   -5.0310    3.4830   -2.0790 O   0  0  0  0  0  0  0  0  0  0  0  0
   -2.4180   -0.4060    1.1920 N   0  0  0  0  0  0  0  0  0  0  0  0
  1  2  2  0
  2  3  1  0
  2  7  1  0
  3  4  1  0
  4  5  2  0
  5  6  1  0
  6  7  2  0
  7  8  1  0
  8  9  2  0
  8 10  1  0
 10 11  1  0
 11 12  1  0
 12 13  2  0
 12 14  1  0
 14 15  1  0
 15 16  2  0
 15 25  1  0
 16 17  1  0
 17 18  1  0
 17 19  2  0
 19 20  1  0
 20 21  1  0
 20 25  1  0
 21 22  1  0
 22 23  1  0
 23 24  1  0
M  END
