
     RDKit          3D

 25 27  0  0  0  0  0  0  0  0999 V2000
    3.6640    2.2850   -1.3630 C   0  0  0  0  0  0  0  0  0  0  0  0
    2.9260    1.1460   -0.7090 C   0  0  0  0  0  0  0  0  0  0  0  0
    3.4010    0.9180    0.7010 C   0  0  0  0  0  0  0  0  0  0  0  0
    2.6190   -0.2370    1.2960 C   0  0  1  0  0  0  0  0  0  0  0  0
    1.2720    0.0280    1.3180 O   0  0  0  0  0  0  0  0  0  0  0  0
    0.2830   -0.7620    0.8410 C   0  0  0  0  0  0  0  0  0  0  0  0
   -1.0910   -0.3820    0.9180 N   0  0  0  0  0  0  0  0  0  0  0  0
   -1.6830    0.1890   -0.0350 C   0  0  0  0  0  0  0  0  0  0  0  0
   -0.9310    0.4770   -1.2810 C   0  0  0  0  0  0  0  0  0  0  0  0
   -3.1020    0.5650    0.0850 C   0  0  0  0  0  0  0  0  0  0  0  0
   -3.7930    0.3230    1.1730 C   0  0  0  0  0  0  0  0  0  0  0  0
   -3.1550   -0.3500    2.3410 C   0  0  0  0  0  0  0  0  0  0  0  0
   -5.1630    0.7030    1.2520 N   0  0  0  0  0  0  0  0  0  0  0  0
   -5.7970    1.3390    0.1740 C   0  0  0  0  0  0  0  0  0  0  0  0
   -7.0200    1.6780    0.2440 O   0  0  0  0  0  0  0  0  0  0  0  0
   -5.0480    1.5990   -1.0020 N   0  0  0  0  0  0  0  0  0  0  0  0
   -3.6780    1.2350   -1.1250 C   0  0  0  0  0  0  0  0  0  0  0  0
    0.5830   -1.9180    0.2860 C   0  0  0  0  0  0  0  0  0  0  0  0
    2.0130   -2.3020    0.2100 C   0  0  0  0  0  0  0  0  0  0  0  0
    2.9460   -1.5200    0.6790 C   0  0  0  0  0  0  0  0  0  0  0  0
    4.2440   -2.2040    0.4430 C   0  0  0  0  0  0  0  0  0  0  0  0
    5.3500   -1.6870    0.7930 O   0  0  0  0  0  0  0  0  0  0  0  0
    4.0110   -3.4420   -0.1970 N   0  0  0  0  0  0  0  0  0  0  0  0
    2.6160   -3.5330   -0.3580 C   0  0  0  0  0  0  0  0  0  0  0  0
    1.9560   -4.4840   -0.8880 O   0  0  0  0  0  0  0  0  0  0  0  0
  1  2  1  0
  2  3  1  0
  4  3  1  6
  4  5  1  0
  4 20  1  0
  5  6  1  0
  6  7  1  0
  6 18  2  0
  7  8  2  3
  8  9  1  0
  8 10  1  0
 10 11  2  0
 10 17  1  0
 11 12  1  0
 11 13  1  0
 13 14  1  0
 14 15  2  0
 14 16  1  0
 16 17  1  0
 18 19  1  0
 19 20  2  0
 19 24  1  0
 20 21  1  0
 21 22  2  0
 21 23  1  0
 23 24  1  0
 24 25  2  0
M  END
