
     RDKit          3D

 25 26  0  0  0  0  0  0  0  0999 V2000
   -3.2210    2.3640   -1.5710 C   0  0  0  0  0  0  0  0  0  0  0  0
   -3.9830    1.1370   -1.3380 C   0  0  0  0  0  0  0  0  0  0  0  0
   -3.7130    0.1700   -0.4910 C   0  0  0  0  0  0  0  0  0  0  0  0
   -4.6740   -0.9560   -0.4770 C   0  0  0  0  0  0  0  0  0  0  0  0
   -5.7900   -0.6890   -1.1140 N   0  0  0  0  0  0  0  0  0  0  0  0
   -4.5820   -2.2990    0.1230 C   0  0  0  0  0  0  0  0  0  0  0  0
   -4.4870   -2.2800    1.5070 O   0  0  0  0  0  0  0  0  0  0  0  0
   -3.8600   -1.1200    1.9630 C   0  0  0  0  0  0  0  0  0  0  0  0
   -2.5050   -0.9190    1.3170 C   0  0  0  0  0  0  0  0  0  0  0  0
   -2.5130    0.2580    0.3610 C   0  0  2  0  0  0  0  0  0  0  0  0
   -2.4970    1.5170    1.1980 C   0  0  0  0  0  0  0  0  0  0  0  0
   -1.3160    0.1290   -0.4440 N   0  0  0  0  0  0  0  0  0  0  0  0
    0.0030    0.1440    0.1020 C   0  0  0  0  0  0  0  0  0  0  0  0
    0.1000    0.2760    1.3200 O   0  0  0  0  0  0  0  0  0  0  0  0
    1.1560    0.0140   -0.7110 N   0  0  0  0  0  0  0  0  0  0  0  0
    2.4870    0.0180   -0.2840 C   0  0  0  0  0  0  0  0  0  0  0  0
    3.4820   -0.1910   -1.2310 C   0  0  0  0  0  0  0  0  0  0  0  0
    4.8200   -0.1910   -0.8540 C   0  0  0  0  0  0  0  0  0  0  0  0
    5.1810    0.0160    0.4610 C   0  0  0  0  0  0  0  0  0  0  0  0
    6.5850    0.0140    0.8440 C   0  0  0  0  0  0  0  0  0  0  0  0
    6.9600    0.1980    2.0290 O   0  0  0  0  0  0  0  0  0  0  0  0
    7.5980   -0.1950   -0.0920 O   0  0  0  0  0  0  0  0  0  0  0  0
    8.9470   -0.1940    0.2930 C   0  0  0  0  0  0  0  0  0  0  0  0
    4.2140    0.2150    1.3520 N   0  0  0  0  0  0  0  0  0  0  0  0
    2.8900    0.2190    1.0010 C   0  0  0  0  0  0  0  0  0  0  0  0
  1  2  1  0
  2  3  2  3
  3  4  1  0
  3 10  1  0
  4  5  2  0
  4  6  1  0
  6  7  1  0
  7  8  1  0
  8  9  1  0
  9 10  1  0
 10 11  1  1
 10 12  1  0
 12 13  1  0
 13 14  2  0
 13 15  1  0
 15 16  1  0
 16 17  2  0
 16 25  1  0
 17 18  1  0
 18 19  2  0
 19 20  1  0
 19 24  1  0
 20 21  2  0
 20 22  1  0
 22 23  1  0
 24 25  2  0
M  END
