
     RDKit          3D

 22 22  0  0  0  0  0  0  0  0999 V2000
    3.0490    1.1740   -1.6540 C   0  0  0  0  0  0  0  0  0  0  0  0
    2.4670   -0.0350   -1.4870 O   0  0  0  0  0  0  0  0  0  0  0  0
    2.1840   -0.4990   -0.2490 C   0  0  1  0  0  0  0  0  0  0  0  0
    3.3500   -0.6620    0.6960 C   0  0  0  0  0  0  0  0  0  0  0  0
    4.0120    0.5310    0.9540 O   0  0  0  0  0  0  0  0  0  0  0  0
    1.1550    0.3490    0.5060 C   0  0  0  0  0  0  0  0  0  0  0  0
   -0.1480   -0.4190    0.4380 C   0  0  1  0  0  0  0  0  0  0  0  0
   -0.5880   -0.9650    1.7670 C   0  0  1  0  0  0  0  0  0  0  0  0
    0.3940   -1.7600    2.3630 O   0  0  0  0  0  0  0  0  0  0  0  0
   -0.9020   -0.0040    2.7190 O   0  0  0  0  0  0  0  0  0  0  0  0
   -1.1650    0.4550   -0.2270 C   0  0  2  0  0  0  0  0  0  0  0  0
   -0.5300    0.9050   -1.4130 O   0  0  0  0  0  0  0  0  0  0  0  0
   -1.5200    1.6890    0.5590 C   0  0  0  0  0  0  0  0  0  0  0  0
   -0.4670    2.4760    0.9490 O   0  0  0  0  0  0  0  0  0  0  0  0
   -0.9270    3.4900    1.6090 O   0  0  0  0  0  0  0  0  0  0  0  0
   -2.4570   -0.2130   -0.5830 C   0  0  1  0  0  0  0  0  0  0  0  0
   -3.3380    0.8570   -1.2400 C   0  0  0  0  0  0  0  0  0  0  0  0
   -2.4030   -1.3510   -1.5190 C   0  0  0  0  0  0  0  0  0  0  0  0
   -3.7260   -1.8290   -1.7270 O   0  0  0  0  0  0  0  0  0  0  0  0
    0.1410   -1.4820   -0.3850 O   0  0  0  0  0  0  0  0  0  0  0  0
    1.4490   -1.7980   -0.3980 C   0  0  2  0  0  0  0  0  0  0  0  0
    1.8760   -2.7650    0.5060 O   0  0  0  0  0  0  0  0  0  0  0  0
  1  2  1  0
  2  3  1  0
  3  4  1  1
  3  6  1  0
  3 21  1  0
  4  5  1  0
  7  6  1  1
  7  8  1  0
  7 11  1  0
  7 20  1  0
  8  9  1  1
  8 10  1  0
 11 12  1  6
 11 13  1  0
 11 16  1  0
 13 14  1  0
 14 15  1  0
 16 17  1  6
 16 18  1  0
 18 19  1  0
 20 21  1  0
 21 22  1  1
M  END
