
     RDKit          3D

 23 24  0  0  0  0  0  0  0  0999 V2000
    3.4950    2.3410    1.2740 O   0  0  0  0  0  0  0  0  0  0  0  0
    3.9870    1.2610    0.5260 C   0  0  0  0  0  0  0  0  0  0  0  0
    3.4490    0.0030    1.1420 C   0  0  1  0  0  0  0  0  0  0  0  0
    2.0770   -0.0740    1.1560 O   0  0  0  0  0  0  0  0  0  0  0  0
    1.4830   -0.0270   -0.0800 C   0  0  2  0  0  0  0  0  0  0  0  0
    0.1490   -0.4000    0.0860 O   0  0  0  0  0  0  0  0  0  0  0  0
   -0.7240    0.6430   -0.2010 C   0  0  0  0  0  0  0  0  0  0  0  0
   -2.1610    0.2460   -0.0230 C   0  0  1  0  0  0  0  0  0  0  0  0
   -2.4450   -0.1580    1.2790 O   0  0  0  0  0  0  0  0  0  0  0  0
   -3.6530   -0.8360    1.2470 C   0  0  2  0  0  0  0  0  0  0  0  0
   -3.4440   -2.0940    0.6590 O   0  0  0  0  0  0  0  0  0  0  0  0
   -4.7130   -0.1150    0.4740 C   0  0  2  0  0  0  0  0  0  0  0  0
   -4.7980   -0.5850   -0.8490 O   0  0  0  0  0  0  0  0  0  0  0  0
   -4.3140    1.3490    0.3880 C   0  0  1  0  0  0  0  0  0  0  0  0
   -3.9340    1.7620    1.6710 O   0  0  0  0  0  0  0  0  0  0  0  0
   -3.0380    1.3970   -0.4610 C   0  0  2  0  0  0  0  0  0  0  0  0
   -3.3830    1.3100   -1.8000 O   0  0  0  0  0  0  0  0  0  0  0  0
    2.0840   -0.9160   -1.1150 C   0  0  2  0  0  0  0  0  0  0  0  0
    1.3020   -2.0680   -1.3210 O   0  0  0  0  0  0  0  0  0  0  0  0
    3.4860   -1.3240   -0.9010 C   0  0  1  0  0  0  0  0  0  0  0  0
    4.3650   -0.5540   -1.6990 O   0  0  0  0  0  0  0  0  0  0  0  0
    3.9810   -1.2430    0.5000 C   0  0  1  0  0  0  0  0  0  0  0  0
    5.3700   -1.3100    0.5230 O   0  0  0  0  0  0  0  0  0  0  0  0
  1  2  1  0
  3  2  1  6
  3  4  1  0
  3 22  1  0
  4  5  1  0
  5  6  1  1
  5 18  1  0
  6  7  1  0
  8  7  1  1
  8  9  1  0
  8 16  1  0
  9 10  1  0
 10 11  1  6
 10 12  1  0
 12 13  1  6
 12 14  1  0
 14 15  1  1
 14 16  1  0
 16 17  1  6
 18 19  1  1
 18 20  1  0
 20 21  1  6
 20 22  1  0
 22 23  1  6
M  END
