
     RDKit          3D

 22 23  0  0  0  0  0  0  0  0999 V2000
   -5.4100   -0.2770   -0.7740 O   0  0  0  0  0  0  0  0  0  0  0  0
   -4.6140   -1.4160   -0.6670 C   0  0  0  0  0  0  0  0  0  0  0  0
   -3.7960   -1.2510    0.6040 C   0  0  2  0  0  0  0  0  0  0  0  0
   -4.7840   -1.1050    1.7610 C   0  0  0  0  0  0  0  0  0  0  0  0
   -4.0700   -0.9680    2.9650 O   0  0  0  0  0  0  0  0  0  0  0  0
   -3.0040   -0.1270    0.5570 O   0  0  0  0  0  0  0  0  0  0  0  0
   -1.6580   -0.3790    0.8070 C   0  0  2  0  0  0  0  0  0  0  0  0
   -1.1640    0.3000    1.9010 O   0  0  0  0  0  0  0  0  0  0  0  0
   -0.8600   -0.0760   -0.4480 C   0  0  1  0  0  0  0  0  0  0  0  0
   -1.2450   -0.8410   -1.5160 O   0  0  0  0  0  0  0  0  0  0  0  0
   -0.9590    1.2900   -0.6780 O   0  0  0  0  0  0  0  0  0  0  0  0
   -0.0830    1.8950    0.2160 C   0  0  0  0  0  0  0  0  0  0  0  0
    0.8420    0.9510    0.5950 O   0  0  0  0  0  0  0  0  0  0  0  0
    0.6350   -0.1950   -0.1440 C   0  0  2  0  0  0  0  0  0  0  0  0
    1.3580   -0.2250   -1.4700 C   0  0  0  0  0  0  0  0  0  0  0  0
    2.6920   -0.1500   -1.4000 O   0  0  0  0  0  0  0  0  0  0  0  0
    3.3650    0.8710   -0.8920 C   0  0  2  0  0  0  0  0  0  0  0  0
    4.4620    1.4880   -1.6730 C   0  0  0  0  0  0  0  0  0  0  0  0
    5.5820    0.7200   -1.3020 O   0  0  0  0  0  0  0  0  0  0  0  0
    5.5100    0.8890    0.1020 C   0  0  0  0  0  0  0  0  0  0  0  0
    4.1070    0.3830    0.3640 C   0  0  2  0  0  0  0  0  0  0  0  0
    4.1700   -1.0060    0.3400 O   0  0  0  0  0  0  0  0  0  0  0  0
  1  2  1  0
  3  2  1  6
  3  4  1  0
  3  6  1  0
  4  5  1  0
  6  7  1  0
  7  8  1  1
  7  9  1  0
  9 10  1  6
  9 11  1  0
  9 14  1  0
 11 12  1  0
 12 13  1  0
 13 14  1  0
 14 15  1  6
 15 16  1  0
 17 16  1  6
 17 18  1  0
 17 21  1  0
 18 19  1  0
 19 20  1  0
 20 21  1  0
 21 22  1  6
M  END
