
     RDKit          3D

 22 22  0  0  0  0  0  0  0  0999 V2000
    5.7410   -0.2600    0.8600 C   0  0  0  0  0  0  0  0  0  0  0  0
    4.4900   -0.3680    0.2890 O   0  0  0  0  0  0  0  0  0  0  0  0
    3.5510    0.0870    1.1950 C   0  0  0  0  0  0  0  0  0  0  0  0
    2.1440   -0.0180    0.5930 C   0  0  1  0  0  0  0  0  0  0  0  0
    1.2860    0.4720    1.6030 O   0  0  0  0  0  0  0  0  0  0  0  0
    0.2800    1.0200    0.7720 C   0  0  2  0  0  0  0  0  0  0  0  0
   -0.4560    0.0710    0.1250 O   0  0  0  0  0  0  0  0  0  0  0  0
   -1.8430    0.2060    0.4220 C   0  0  1  0  0  0  0  0  0  0  0  0
   -2.5680    0.5790   -0.8120 C   0  0  2  0  0  0  0  0  0  0  0  0
   -3.9410    0.7550   -0.6120 O   0  0  0  0  0  0  0  0  0  0  0  0
   -2.3420   -0.2790   -1.9810 C   0  0  0  0  0  0  0  0  0  0  0  0
   -2.6720   -1.6140   -1.9510 O   0  0  0  0  0  0  0  0  0  0  0  0
   -1.8180    0.2160   -3.0770 C   0  0  0  0  0  0  0  0  0  0  0  0
   -1.4860    1.5640   -3.1000 O   0  0  0  0  0  0  0  0  0  0  0  0
   -2.2430   -0.9990    1.1690 C   0  0  2  0  0  0  0  0  0  0  0  0
   -2.0910   -2.2140    0.5240 O   0  0  0  0  0  0  0  0  0  0  0  0
   -3.5650   -0.8720    1.8840 C   0  0  0  0  0  0  0  0  0  0  0  0
   -4.6750   -1.0060    1.1010 O   0  0  0  0  0  0  0  0  0  0  0  0
    1.0390    1.8500   -0.0420 O   0  0  0  0  0  0  0  0  0  0  0  0
    2.0010    0.9720   -0.5230 C   0  0  2  0  0  0  0  0  0  0  0  0
    1.6570    0.3480   -1.8480 C   0  0  0  0  0  0  0  0  0  0  0  0
    2.7450   -0.4990   -2.1650 O   0  0  0  0  0  0  0  0  0  0  0  0
  1  2  1  0
  2  3  1  0
  4  3  1  1
  4  5  1  0
  4 20  1  0
  5  6  1  0
  6  7  1  6
  6 19  1  0
  8  7  1  6
  8  9  1  0
  8 15  1  0
  9 10  1  1
  9 11  1  0
 11 12  1  0
 11 13  2  3
 13 14  1  0
 15 16  1  6
 15 17  1  0
 17 18  1  0
 19 20  1  0
 20 21  1  6
 21 22  1  0
M  END
