
     RDKit          3D

 22 22  0  0  0  0  0  0  0  0999 V2000
    4.1000    2.3820    1.4530 C   0  0  0  0  0  0  0  0  0  0  0  0
    4.0110    0.9930    1.5170 O   0  0  0  0  0  0  0  0  0  0  0  0
    2.6600    0.5820    1.4720 C   0  0  2  0  0  0  0  0  0  0  0  0
    2.4340    0.0230    2.7560 O   0  0  0  0  0  0  0  0  0  0  0  0
    2.5080   -0.4800    0.4450 C   0  0  0  0  0  0  0  0  0  0  0  0
    1.1180   -1.0200    0.2720 C   0  0  2  0  0  0  0  0  0  0  0  0
    0.6980   -1.5600    1.4690 O   0  0  0  0  0  0  0  0  0  0  0  0
    1.2540   -2.1180   -0.8030 C   0  0  2  0  0  0  0  0  0  0  0  0
    2.4870   -2.7440   -0.6570 O   0  0  0  0  0  0  0  0  0  0  0  0
    1.1600   -1.3290   -2.0590 C   0  0  2  0  0  0  0  0  0  0  0  0
    2.4090   -1.0820   -2.6390 O   0  0  0  0  0  0  0  0  0  0  0  0
    0.5340   -0.1620   -1.7770 O   0  0  0  0  0  0  0  0  0  0  0  0
    0.1750   -0.1190   -0.4130 C   0  0  1  0  0  0  0  0  0  0  0  0
   -1.1180   -0.6930   -0.4040 O   0  0  0  0  0  0  0  0  0  0  0  0
   -2.0800    0.2740   -0.1280 C   0  0  2  0  0  0  0  0  0  0  0  0
   -3.0740   -0.1680    0.8880 C   0  0  0  0  0  0  0  0  0  0  0  0
   -2.4950   -0.5300    2.2220 C   0  0  0  0  0  0  0  0  0  0  0  0
   -3.5340   -0.8970    3.0970 O   0  0  0  0  0  0  0  0  0  0  0  0
   -2.9050    0.5290   -1.4110 C   0  0  0  0  0  0  0  0  0  0  0  0
   -3.9340    1.5540   -1.1400 C   0  0  0  0  0  0  0  0  0  0  0  0
   -5.1240    1.2990   -0.7900 O   0  0  0  0  0  0  0  0  0  0  0  0
   -3.6610    2.9300   -1.2540 O   0  0  0  0  0  0  0  0  0  0  0  0
  1  2  1  0
  2  3  1  0
  3  4  1  1
  3  5  1  0
  5  6  1  0
  6  7  1  1
  6  8  1  0
  6 13  1  0
  8  9  1  1
  8 10  1  0
 10 11  1  1
 10 12  1  0
 12 13  1  0
 13 14  1  6
 14 15  1  0
 15 16  1  1
 15 19  1  0
 16 17  1  0
 17 18  1  0
 19 20  1  0
 20 21  2  0
 20 22  1  0
M  END
