
     RDKit          3D

 13 14  0  0  0  0  0  0  0  0999 V2000
    3.7160    1.4940    0.1630 C   0  0  0  0  0  0  0  0  0  0  0  0
    2.6820    0.8340    1.1010 C   0  0  0  0  0  0  0  0  0  0  0  0
    2.3400   -0.4410    0.4820 C   0  0  0  0  0  0  0  0  0  0  0  0
    1.1420   -0.7840    0.1120 C   0  0  0  0  0  0  0  0  0  0  0  0
    0.9250   -2.0570   -0.4830 O   0  0  0  0  0  0  0  0  0  0  0  0
   -0.3500   -2.6650   -0.3550 C   0  0  0  0  0  0  0  0  0  0  0  0
   -1.4510   -1.7210   -0.7720 C   0  0  0  0  0  0  0  0  0  0  0  0
   -1.2630   -0.3890   -0.1560 C   0  0  0  0  0  0  0  0  0  0  0  0
   -0.0620    0.0230    0.2450 C   0  0  0  0  0  0  0  0  0  0  0  0
   -0.2690    1.2870    0.7590 O   0  0  0  0  0  0  0  0  0  0  0  0
   -1.5030    1.8400    0.3430 C   0  0  0  0  0  0  0  0  0  0  0  0
   -2.2550    0.6110    0.0990 N   0  0  0  0  0  0  0  0  0  0  0  0
   -3.6980    0.4310    0.1100 C   0  0  0  0  0  0  0  0  0  0  0  0
  1  2  1  0
  2  3  1  0
  3  4  2  3
  4  5  1  0
  4  9  1  0
  5  6  1  0
  6  7  1  0
  7  8  1  0
  8  9  2  0
  8 12  1  0
  9 10  1  0
 10 11  1  0
 11 12  1  0
 12 13  1  0
M  END
