
     RDKit          3D

 14 14  0  0  0  0  0  0  0  0999 V2000
   -4.4620    2.1240   -0.4750 C   0  0  0  0  0  0  0  0  0  0  0  0
   -4.1260    0.9030   -0.1600 C   0  0  0  0  0  0  0  0  0  0  0  0
   -2.7210    0.5420   -0.0780 C   0  0  0  0  0  0  0  0  0  0  0  0
   -2.3180   -0.6740    0.2350 C   0  0  0  0  0  0  0  0  0  0  0  0
   -0.9880   -1.1140    0.3390 N   0  0  0  0  0  0  0  0  0  0  0  0
   -0.6520   -2.4970    0.6950 C   0  0  0  0  0  0  0  0  0  0  0  0
    0.0790   -0.1620    0.0830 C   0  0  0  0  0  0  0  0  0  0  0  0
    1.3080   -0.5610    0.1770 C   0  0  0  0  0  0  0  0  0  0  0  0
    2.4730    0.2570   -0.0450 C   0  0  0  0  0  0  0  0  0  0  0  0
    3.7050   -0.2800    0.0850 C   0  0  0  0  0  0  0  0  0  0  0  0
    4.8760    0.5610   -0.1420 C   0  0  0  0  0  0  0  0  0  0  0  0
   -0.3530    1.1630   -0.2570 C   0  0  0  0  0  0  0  0  0  0  0  0
    0.4970    2.0840   -0.5030 O   0  0  0  0  0  0  0  0  0  0  0  0
   -1.7120    1.4590   -0.3240 O   0  0  0  0  0  0  0  0  0  0  0  0
  1  2  2  0
  2  3  1  0
  3  4  2  0
  3 14  1  0
  4  5  1  0
  5  6  1  0
  5  7  1  0
  7  8  2  3
  7 12  1  0
  8  9  1  0
  9 10  2  3
 10 11  1  0
 12 13  2  0
 12 14  1  0
M  END
