
     RDKit          3D

 17 18  0  0  0  0  0  0  0  0999 V2000
    6.2960   -0.0410    0.3110 C   0  0  0  0  0  0  0  0  0  0  0  0
    4.8090    0.0440    0.2670 C   0  0  0  0  0  0  0  0  0  0  0  0
    4.0290   -0.9840   -0.1990 C   0  0  0  0  0  0  0  0  0  0  0  0
    2.6470   -0.8700   -0.2250 C   0  0  0  0  0  0  0  0  0  0  0  0
    2.0190    0.2750    0.2150 C   0  0  0  0  0  0  0  0  0  0  0  0
    0.5890    0.4660    0.2180 C   0  0  0  0  0  0  0  0  0  0  0  0
   -0.2110   -0.4770   -0.2140 C   0  0  0  0  0  0  0  0  0  0  0  0
   -1.6530   -0.2610   -0.2010 C   0  0  0  0  0  0  0  0  0  0  0  0
   -2.3120    0.8910    0.2410 C   0  0  0  0  0  0  0  0  0  0  0  0
   -3.6510    0.6240    0.0590 C   0  0  0  0  0  0  0  0  0  0  0  0
   -4.7700    1.5460    0.3820 C   0  0  0  0  0  0  0  0  0  0  0  0
   -3.7720   -0.6430   -0.4710 C   0  0  0  0  0  0  0  0  0  0  0  0
   -5.0610   -1.3420   -0.8280 C   0  0  0  0  0  0  0  0  0  0  0  0
   -4.7800   -2.6090   -1.3380 O   0  0  0  0  0  0  0  0  0  0  0  0
   -2.5720   -1.1080   -0.6000 O   0  0  0  0  0  0  0  0  0  0  0  0
    2.8480    1.2920    0.6800 C   0  0  0  0  0  0  0  0  0  0  0  0
    4.2230    1.2030    0.7160 C   0  0  0  0  0  0  0  0  0  0  0  0
  1  2  1  0
  2  3  2  0
  2 17  1  0
  3  4  1  0
  4  5  2  0
  5  6  1  0
  5 16  1  0
  6  7  2  3
  7  8  1  0
  8  9  2  0
  8 15  1  0
  9 10  1  0
 10 11  1  0
 10 12  2  0
 12 13  1  0
 12 15  1  0
 13 14  1  0
 16 17  2  0
M  END
