
     RDKit          3D

 22 24  0  0  0  0  0  0  0  0999 V2000
    5.9370   -1.4260   -0.0280 C   0  0  0  0  0  0  0  0  0  0  0  0
    4.9170   -1.7730   -1.0910 C   0  0  0  0  0  0  0  0  0  0  0  0
    3.6640   -1.1530   -0.8200 O   0  0  0  0  0  0  0  0  0  0  0  0
    3.5610    0.2280   -0.7400 C   0  0  0  0  0  0  0  0  0  0  0  0
    4.6110    0.8870   -0.9180 O   0  0  0  0  0  0  0  0  0  0  0  0
    2.2720    0.8570   -0.4610 C   0  0  0  0  0  0  0  0  0  0  0  0
    2.1700    2.2290   -0.3820 C   0  0  0  0  0  0  0  0  0  0  0  0
    0.9340    2.7880   -0.1160 C   0  0  0  0  0  0  0  0  0  0  0  0
    0.8400    4.2640   -0.0350 C   0  0  0  0  0  0  0  0  0  0  0  0
   -0.2070    2.0280    0.0750 C   0  0  0  0  0  0  0  0  0  0  0  0
   -1.5010    2.2980    0.3400 N   0  0  0  0  0  0  0  0  0  0  0  0
   -2.2140    1.1580    0.4310 C   0  0  0  0  0  0  0  0  0  0  0  0
   -1.3280    0.1230    0.2140 C   0  0  0  0  0  0  0  0  0  0  0  0
   -0.0670    0.6390   -0.0120 C   0  0  0  0  0  0  0  0  0  0  0  0
    1.1620    0.0650   -0.2770 C   0  0  0  0  0  0  0  0  0  0  0  0
   -1.7440   -1.3020    0.2340 C   0  0  0  0  0  0  0  0  0  0  0  0
   -3.2230   -1.4820    0.2610 C   0  0  1  0  0  0  0  0  0  0  0  0
   -3.8740   -1.3880   -1.0950 C   0  0  0  0  0  0  0  0  0  0  0  0
   -3.4960   -2.9000    0.7770 C   0  0  0  0  0  0  0  0  0  0  0  0
   -3.9330   -0.5090    1.1800 C   0  0  0  0  0  0  0  0  0  0  0  0
   -3.6270    0.8570    0.6950 C   0  0  0  0  0  0  0  0  0  0  0  0
   -4.4580    1.7500    0.5000 O   0  0  0  0  0  0  0  0  0  0  0  0
  1  2  1  0
  2  3  1  0
  3  4  1  0
  4  5  2  0
  4  6  1  0
  6  7  2  0
  6 15  1  0
  7  8  1  0
  8  9  1  0
  8 10  2  0
 10 11  1  0
 10 14  1  0
 11 12  1  0
 12 13  2  0
 12 21  1  0
 13 14  1  0
 13 16  1  0
 14 15  2  0
 16 17  1  0
 17 18  1  6
 17 19  1  0
 17 20  1  0
 20 21  1  0
 21 22  2  0
M  END
