
     RDKit          3D

 17 18  0  0  0  0  0  0  0  0999 V2000
    4.3780    1.5910    0.4970 C   0  0  0  0  0  0  0  0  0  0  0  0
    3.1880    0.7700    0.1120 C   0  0  0  0  0  0  0  0  0  0  0  0
    1.9750    1.1110    0.6710 C   0  0  0  0  0  0  0  0  0  0  0  0
    0.8560    0.3630    0.3290 C   0  0  0  0  0  0  0  0  0  0  0  0
    0.9300   -0.6960   -0.5420 C   0  0  0  0  0  0  0  0  0  0  0  0
   -0.3060   -1.4460   -0.8560 C   0  0  1  0  0  0  0  0  0  0  0  0
   -0.1420   -2.8260   -0.7550 O   0  0  0  0  0  0  0  0  0  0  0  0
   -1.4190   -0.9060   -0.0710 C   0  0  0  0  0  0  0  0  0  0  0  0
   -1.7550   -1.5030    1.1450 C   0  0  0  0  0  0  0  0  0  0  0  0
   -2.7880   -0.9820    1.8890 C   0  0  0  0  0  0  0  0  0  0  0  0
   -3.4830    0.1250    1.4270 C   0  0  0  0  0  0  0  0  0  0  0  0
   -4.5230    0.6510    2.1760 O   0  0  0  0  0  0  0  0  0  0  0  0
   -3.1420    0.7000    0.2310 C   0  0  0  0  0  0  0  0  0  0  0  0
   -2.1080    0.1920   -0.5310 C   0  0  0  0  0  0  0  0  0  0  0  0
   -1.7590    0.8270   -1.8540 C   0  0  0  0  0  0  0  0  0  0  0  0
    2.1590   -1.0390   -1.1060 C   0  0  0  0  0  0  0  0  0  0  0  0
    3.2630   -0.2920   -0.7620 C   0  0  0  0  0  0  0  0  0  0  0  0
  1  2  1  0
  2  3  2  0
  2 17  1  0
  3  4  1  0
  4  5  2  0
  5  6  1  0
  5 16  1  0
  6  7  1  1
  6  8  1  0
  8  9  2  0
  8 14  1  0
  9 10  1  0
 10 11  2  0
 11 12  1  0
 11 13  1  0
 13 14  2  0
 14 15  1  0
 16 17  2  0
M  END
