
     RDKit          3D

 22 24  0  0  0  0  0  0  0  0999 V2000
    5.6760    1.7860   -0.0760 C   0  0  0  0  0  0  0  0  0  0  0  0
    4.2840    1.3380    0.2120 C   0  0  0  0  0  0  0  0  0  0  0  0
    3.4610    1.8540    1.1680 C   0  0  0  0  0  0  0  0  0  0  0  0
    2.2940    1.1140    1.0480 C   0  0  0  0  0  0  0  0  0  0  0  0
    2.4710    0.1990    0.0540 C   0  0  0  0  0  0  0  0  0  0  0  0
    1.4370   -0.7910   -0.3490 C   0  0  1  0  0  0  0  0  0  0  0  0
    2.1280   -1.7930   -1.2430 C   0  0  0  0  0  0  0  0  0  0  0  0
    1.4610   -3.0020   -1.3020 O   0  0  0  0  0  0  0  0  0  0  0  0
    1.6010   -3.5520   -0.0190 C   0  0  0  0  0  0  0  0  0  0  0  0
    1.0530   -2.7070    1.0660 C   0  0  0  0  0  0  0  0  0  0  0  0
    0.7630   -1.3120    0.7920 N   0  0  0  0  0  0  0  0  0  0  0  0
   -0.6090   -1.1170    0.8580 C   0  0  0  0  0  0  0  0  0  0  0  0
   -1.4500   -0.0740    0.3110 C   0  0  0  0  0  0  0  0  0  0  0  0
   -1.6670    1.1890    0.6940 C   0  0  0  0  0  0  0  0  0  0  0  0
   -2.7340    1.9260    0.2090 C   0  0  0  0  0  0  0  0  0  0  0  0
   -3.1140    3.2630    0.7800 C   0  0  0  0  0  0  0  0  0  0  0  0
   -3.6270    1.3940   -0.6990 C   0  0  0  0  0  0  0  0  0  0  0  0
   -4.8670    2.1020   -1.1670 C   0  0  0  0  0  0  0  0  0  0  0  0
   -3.4270    0.0840   -1.1240 C   0  0  0  0  0  0  0  0  0  0  0  0
   -2.3940   -0.6070   -0.6420 C   0  0  0  0  0  0  0  0  0  0  0  0
   -2.1320   -2.0570   -1.0370 C   0  0  0  0  0  0  0  0  0  0  0  0
    3.6770    0.3750   -0.4310 O   0  0  0  0  0  0  0  0  0  0  0  0
  1  2  1  0
  2  3  2  0
  2 22  1  0
  3  4  1  0
  4  5  2  0
  6  5  1  1
  5 22  1  0
  6  7  1  0
  6 11  1  0
  7  8  1  0
  8  9  1  0
  9 10  1  0
 10 11  1  0
 11 12  1  0
 12 13  1  0
 13 14  2  0
 13 20  1  0
 14 15  1  0
 15 16  1  0
 15 17  2  0
 17 18  1  0
 17 19  1  0
 19 20  2  0
 20 21  1  0
M  END
