
     RDKit          3D

 36 38  0  0  0  0  0  0  0  0999 V2000
   -6.7930   -0.7390    3.5900 C   0  0  0  0  0  0  0  0  0  0  0  0
   -7.2980   -0.3690    2.1730 C   0  0  0  0  0  0  0  0  0  0  0  0
   -6.1370    0.2100    1.4700 C   0  0  0  0  0  0  0  0  0  0  0  0
   -6.2840    0.6910    0.0930 C   0  0  1  0  0  0  0  0  0  0  0  0
   -4.9070    1.2150   -0.3510 C   0  0  0  0  0  0  0  0  0  0  0  0
   -4.3540    2.0560   -0.8870 N   0  0  0  0  0  0  0  0  0  0  0  0
   -3.0560    2.1880   -1.0870 C   0  0  0  0  0  0  0  0  0  0  0  0
   -2.2620    1.2410   -0.6170 C   0  0  0  0  0  0  0  0  0  0  0  0
   -0.8210    0.9710   -0.6180 C   0  0  0  0  0  0  0  0  0  0  0  0
   -0.3700   -0.0530   -0.0260 O   0  0  0  0  0  0  0  0  0  0  0  0
    0.1140    1.8970   -1.3150 C   0  0  0  0  0  0  0  0  0  0  0  0
    1.4580    1.3800   -1.1270 N   0  0  0  0  0  0  0  0  0  0  0  0
    2.5660    2.0450   -1.7300 C   0  0  0  0  0  0  0  0  0  0  0  0
    2.3380    3.0570   -2.4120 O   0  0  0  0  0  0  0  0  0  0  0  0
    3.9060    1.5100   -1.5180 C   0  0  0  0  0  0  0  0  0  0  0  0
    5.0400    1.9350   -2.1550 C   0  0  0  0  0  0  0  0  0  0  0  0
    6.1040    1.1770   -1.6460 C   0  0  0  0  0  0  0  0  0  0  0  0
    5.5810    0.3200   -0.7180 C   0  0  0  0  0  0  0  0  0  0  0  0
    4.2590    0.5390   -0.6600 N   0  0  0  0  0  0  0  0  0  0  0  0
    6.5150   -0.6170   -0.0100 C   0  0  0  0  0  0  0  0  0  0  0  0
    5.8950   -1.4000    1.0280 C   0  0  0  0  0  0  0  0  0  0  0  0
    6.4770   -2.1910    1.7620 O   0  0  0  0  0  0  0  0  0  0  0  0
    4.5260   -1.2970    1.2700 O   0  0  0  0  0  0  0  0  0  0  0  0
    3.8880   -2.0560    2.2880 C   0  0  0  0  0  0  0  0  0  0  0  0
    7.7990   -0.6220   -0.2720 C   0  0  0  0  0  0  0  0  0  0  0  0
    8.7860   -1.4940    0.3400 C   0  0  2  0  0  0  0  0  0  0  0  0
    8.6380   -2.9250    0.5710 C   0  0  0  0  0  0  0  0  0  0  0  0
    9.7610   -0.7640    1.2610 C   0  0  0  0  0  0  0  0  0  0  0  0
    8.2490    0.3140   -1.2360 O   0  0  0  0  0  0  0  0  0  0  0  0
    7.5380    1.2100   -1.9730 C   0  0  0  0  0  0  0  0  0  0  0  0
   -3.4850    0.1000    0.1550 S   0  0  0  0  0  0  0  0  0  0  0  0
   -6.8090   -0.2230   -0.9460 C   0  0  1  0  0  0  0  0  0  0  0  0
   -6.0250   -1.4920   -1.1550 C   0  0  0  0  0  0  0  0  0  0  0  0
   -8.2990   -0.3870   -1.0180 C   0  0  0  0  0  0  0  0  0  0  0  0
   -8.9840    0.9580   -1.3090 C   0  0  0  0  0  0  0  0  0  0  0  0
  -10.3750    0.7720   -1.3810 O   0  0  0  0  0  0  0  0  0  0  0  0
  1  2  1  0
  2  3  1  0
  4  3  1  1
  4  5  1  0
  4 32  1  0
  5  6  2  0
  5 31  1  0
  6  7  1  0
  7  8  2  0
  8  9  1  0
  8 31  1  0
  9 10  2  0
  9 11  1  0
 11 12  1  0
 12 13  1  0
 13 14  2  0
 13 15  1  0
 15 16  2  0
 15 19  1  0
 16 17  1  0
 17 18  2  0
 17 30  1  0
 18 19  1  0
 18 20  1  0
 20 21  1  0
 20 25  2  0
 21 22  2  0
 21 23  1  0
 23 24  1  0
 25 26  1  0
 25 29  1  0
 26 27  1  1
 26 28  1  0
 29 30  1  0
 32 33  1  1
 32 34  1  0
 34 35  1  0
 35 36  1  0
M  END
