
     RDKit          3D

 36 38  0  0  0  0  0  0  0  0999 V2000
   -6.5620    3.5660   -1.0580 C   0  0  0  0  0  0  0  0  0  0  0  0
   -6.6760    2.0280   -1.2180 C   0  0  0  0  0  0  0  0  0  0  0  0
   -5.8710    1.4020   -0.2830 O   0  0  0  0  0  0  0  0  0  0  0  0
   -5.7210    0.1000    0.0220 C   0  0  0  0  0  0  0  0  0  0  0  0
   -6.4040   -0.9020   -0.5860 C   0  0  0  0  0  0  0  0  0  0  0  0
   -6.2630   -2.2470   -0.2570 C   0  0  0  0  0  0  0  0  0  0  0  0
   -5.3680   -2.5680    0.7580 C   0  0  0  0  0  0  0  0  0  0  0  0
   -5.2150   -3.9210    1.1160 O   0  0  0  0  0  0  0  0  0  0  0  0
   -5.9490   -4.9250    0.4760 C   0  0  0  0  0  0  0  0  0  0  0  0
   -4.6620   -1.5440    1.3830 C   0  0  0  0  0  0  0  0  0  0  0  0
   -4.8040   -0.2450    1.0520 C   0  0  0  0  0  0  0  0  0  0  0  0
   -4.0050    0.8870    1.5910 C   0  0  0  0  0  0  0  0  0  0  0  0
   -2.8180    1.0890    0.7910 N   0  0  0  0  0  0  0  0  0  0  0  0
   -2.7540    1.1000   -0.5480 N   0  0  0  0  0  0  0  0  0  0  0  0
   -1.5080    1.1610   -0.9920 C   0  0  0  0  0  0  0  0  0  0  0  0
   -0.8630    1.2520   -2.3150 C   0  0  0  0  0  0  0  0  0  0  0  0
   -1.8990    0.7510   -3.6950 S   0  0  0  0  0  0  0  0  0  0  0  0
   -1.8830   -1.0930   -3.7990 C   0  0  0  0  0  0  0  0  0  0  0  0
   -0.6490    1.1960    0.1850 C   0  0  0  0  0  0  0  0  0  0  0  0
    0.7900    1.3930    0.0080 C   0  0  0  0  0  0  0  0  0  0  0  0
    1.6630    0.3200    0.4570 N   0  0  0  0  0  0  0  0  0  0  0  0
    3.0350    0.3580   -0.0060 C   0  0  0  0  0  0  0  0  0  0  0  0
    3.3300    1.3660   -0.6960 O   0  0  0  0  0  0  0  0  0  0  0  0
    4.0460   -0.6670    0.2410 C   0  0  1  0  0  0  0  0  0  0  0  0
    4.1490   -1.3500   -1.2020 C   0  0  0  0  0  0  0  0  0  0  0  0
    4.8120   -0.2090   -1.9110 C   0  0  0  0  0  0  0  0  0  0  0  0
    5.3640    0.6530   -0.9580 O   0  0  0  0  0  0  0  0  0  0  0  0
    5.4450   -0.1550    0.1820 C   0  0  1  0  0  0  0  0  0  0  0  0
    6.0670    0.4260    1.3700 C   0  0  1  0  0  0  0  0  0  0  0  0
    6.1520   -0.5210    2.5100 C   0  0  0  0  0  0  0  0  0  0  0  0
    4.8840   -0.9270    2.9390 O   0  0  0  0  0  0  0  0  0  0  0  0
    7.3690    1.1330    1.0610 C   0  0  0  0  0  0  0  0  0  0  0  0
    8.3530    0.1810    0.3880 C   0  0  0  0  0  0  0  0  0  0  0  0
    8.6660   -0.9400    1.0690 O   0  0  0  0  0  0  0  0  0  0  0  0
   -1.5130    1.1460    1.2240 C   0  0  0  0  0  0  0  0  0  0  0  0
   -1.1750    1.2920    2.6930 C   0  0  0  0  0  0  0  0  0  0  0  0
  1  2  1  0
  2  3  1  0
  3  4  1  0
  4  5  2  0
  4 11  1  0
  5  6  1  0
  6  7  2  0
  7  8  1  0
  7 10  1  0
  8  9  1  0
 10 11  2  0
 11 12  1  0
 12 13  1  0
 13 14  1  0
 13 35  1  0
 14 15  2  0
 15 16  1  0
 15 19  1  0
 16 17  1  0
 17 18  1  0
 19 20  1  0
 19 35  2  0
 20 21  1  0
 21 22  1  0
 22 23  2  0
 24 22  1  6
 24 25  1  0
 24 28  1  0
 25 26  1  0
 26 27  1  0
 28 27  1  6
 28 29  1  0
 29 30  1  1
 29 32  1  0
 30 31  1  0
 32 33  1  0
 33 34  1  0
 35 36  1  0
M  END
