
     RDKit          3D

 35 37  0  0  0  0  0  0  0  0999 V2000
   -0.1040    3.7380   -1.4880 C   0  0  0  0  0  0  0  0  0  0  0  0
    0.0520    2.4520   -0.9250 O   0  0  0  0  0  0  0  0  0  0  0  0
   -1.0120    1.6340   -0.5920 C   0  0  0  0  0  0  0  0  0  0  0  0
   -2.3420    2.0230   -0.7910 C   0  0  0  0  0  0  0  0  0  0  0  0
   -3.3510    1.1390   -0.4290 C   0  0  0  0  0  0  0  0  0  0  0  0
   -3.0960   -0.1000    0.1170 C   0  0  0  0  0  0  0  0  0  0  0  0
   -4.1750   -1.0200    0.4930 C   0  0  0  0  0  0  0  0  0  0  0  0
   -3.9410   -2.1430    0.9880 O   0  0  0  0  0  0  0  0  0  0  0  0
   -5.4750   -0.6030    0.2820 O   0  0  0  0  0  0  0  0  0  0  0  0
   -6.6010   -1.3990    0.6040 C   0  0  0  0  0  0  0  0  0  0  0  0
   -7.8310   -0.6320    0.2420 C   0  0  0  0  0  0  0  0  0  0  0  0
   -7.7580    0.5800   -0.2840 C   0  0  0  0  0  0  0  0  0  0  0  0
   -8.9440    1.3870   -0.6620 C   0  0  0  0  0  0  0  0  0  0  0  0
  -10.1550    0.7270   -0.4020 O   0  0  0  0  0  0  0  0  0  0  0  0
  -10.2290   -0.5270    0.1420 C   0  0  0  0  0  0  0  0  0  0  0  0
   -9.1530   -1.2200    0.4690 C   0  0  0  0  0  0  0  0  0  0  0  0
   -1.7700   -0.4460    0.2970 C   0  0  0  0  0  0  0  0  0  0  0  0
   -0.7360    0.4000   -0.0490 C   0  0  0  0  0  0  0  0  0  0  0  0
    0.5930    0.0480    0.1340 O   0  0  0  0  0  0  0  0  0  0  0  0
    1.3210    0.2950    1.2550 C   0  0  0  0  0  0  0  0  0  0  0  0
    0.7050    0.8970    2.1910 O   0  0  0  0  0  0  0  0  0  0  0  0
    2.7150   -0.0510    1.5020 C   0  0  0  0  0  0  0  0  0  0  0  0
    3.3910    0.2140    2.6300 N   0  0  0  0  0  0  0  0  0  0  0  0
    4.6480   -0.2100    2.5940 C   0  0  0  0  0  0  0  0  0  0  0  0
    5.6490   -0.0920    3.6270 N   0  0  0  0  0  0  0  0  0  0  0  0
    4.8310   -0.8070    1.3420 C   0  0  0  0  0  0  0  0  0  0  0  0
    6.0950   -1.3910    0.9390 C   0  0  0  0  0  0  0  0  0  0  0  0
    7.0860   -1.3590    1.7520 O   0  0  0  0  0  0  0  0  0  0  0  0
    6.3720   -2.0130   -0.2860 N   0  0  0  0  0  0  0  0  0  0  0  0
    7.6700   -2.5650   -0.5920 C   0  0  0  0  0  0  0  0  0  0  0  0
    8.3660   -2.1190   -1.6210 C   0  0  0  0  0  0  0  0  0  0  0  0
    7.7700   -0.8250   -2.6940 S   0  0  0  0  0  0  0  0  0  0  0  0
    7.9280    0.8110   -1.9160 C   0  0  0  0  0  0  0  0  0  0  0  0
    3.6310   -0.7060    0.6690 C   0  0  0  0  0  0  0  0  0  0  0  0
    3.3510   -1.1990   -0.6990 C   0  0  0  0  0  0  0  0  0  0  0  0
  1  2  1  0
  2  3  1  0
  3  4  2  0
  3 18  1  0
  4  5  1  0
  5  6  2  0
  6  7  1  0
  6 17  1  0
  7  8  2  0
  7  9  1  0
  9 10  1  0
 10 11  1  0
 11 12  2  0
 11 16  1  0
 12 13  1  0
 13 14  1  0
 14 15  1  0
 15 16  2  0
 17 18  2  0
 18 19  1  0
 19 20  1  0
 20 21  2  0
 20 22  1  0
 22 23  1  0
 22 34  2  0
 23 24  1  0
 24 25  1  0
 24 26  2  0
 26 27  1  0
 26 34  1  0
 27 28  2  0
 27 29  1  0
 29 30  1  0
 30 31  2  3
 31 32  1  0
 32 33  1  0
 34 35  1  0
M  END
