
     RDKit          3D

 35 36  0  0  0  0  0  0  0  0999 V2000
   -0.8910    5.5060   -0.2670 C   0  0  0  0  0  0  0  0  0  0  0  0
   -1.8350    4.5280   -0.8780 C   0  0  0  0  0  0  0  0  0  0  0  0
   -1.7350    3.2140   -0.3670 O   0  0  0  0  0  0  0  0  0  0  0  0
   -1.9170    2.8280    0.9290 C   0  0  0  0  0  0  0  0  0  0  0  0
   -2.2010    3.7570    1.7510 O   0  0  0  0  0  0  0  0  0  0  0  0
   -1.8020    1.4160    1.3880 C   0  0  0  0  0  0  0  0  0  0  0  0
   -1.4150    0.5820    0.5640 O   0  0  0  0  0  0  0  0  0  0  0  0
   -1.0470   -0.2490   -0.2860 C   0  0  2  0  0  0  0  0  0  0  0  0
   -1.7370   -1.6890   -0.0330 C   0  0  0  0  0  0  0  0  0  0  0  0
   -3.2060   -1.5310   -0.1210 C   0  0  1  0  0  0  0  0  0  0  0  0
   -3.5380   -1.0610   -1.3850 O   0  0  0  0  0  0  0  0  0  0  0  0
   -3.8080   -2.7600    0.1970 O   0  0  0  0  0  0  0  0  0  0  0  0
   -4.7220   -2.9530    1.1870 C   0  0  0  0  0  0  0  0  0  0  0  0
   -5.0960   -2.0110    1.9010 O   0  0  0  0  0  0  0  0  0  0  0  0
   -5.2830   -4.3020    1.4210 C   0  0  1  0  0  0  0  0  0  0  0  0
   -6.2030   -4.2770    2.4740 O   0  0  0  0  0  0  0  0  0  0  0  0
   -5.9450   -4.7780    0.1540 C   0  0  0  0  0  0  0  0  0  0  0  0
   -6.4330   -6.0550    0.3810 O   0  0  0  0  0  0  0  0  0  0  0  0
    0.3600   -0.6080   -0.5170 C   0  0  0  0  0  0  0  0  0  0  0  0
    1.3900    0.3490   -0.9540 C   0  0  2  0  0  0  0  0  0  0  0  0
    1.0710    0.9930   -2.3080 C   0  0  0  0  0  0  0  0  0  0  0  0
   -0.0920    1.6880   -2.3480 O   0  0  0  0  0  0  0  0  0  0  0  0
    2.5780   -0.5840   -1.4000 C   0  0  0  0  0  0  0  0  0  0  0  0
    3.4410   -0.7240   -0.2200 C   0  0  1  0  0  0  0  0  0  0  0  0
    4.4960   -1.5880   -0.2800 O   0  0  0  0  0  0  0  0  0  0  0  0
    5.4070   -1.0650    0.6380 C   0  0  1  0  0  0  0  0  0  0  0  0
    6.7900   -1.1150    0.1120 C   0  0  0  0  0  0  0  0  0  0  0  0
    7.8630   -0.6310    0.9020 N   0  0  0  0  0  0  0  0  0  0  0  0
    7.0520   -1.5760   -1.0250 O   0  0  0  0  0  0  0  0  0  0  0  0
    5.0550    0.2920    0.8550 O   0  0  0  0  0  0  0  0  0  0  0  0
    4.2460    0.5940   -0.1920 C   0  0  2  0  0  0  0  0  0  0  0  0
    3.3390    1.7330   -0.1360 C   0  0  0  0  0  0  0  0  0  0  0  0
    1.8630    1.3860   -0.0290 C   0  0  2  0  0  0  0  0  0  0  0  0
    1.5570    1.2160    1.4320 C   0  0  0  0  0  0  0  0  0  0  0  0
    1.2230    2.6030   -0.3690 O   0  0  0  0  0  0  0  0  0  0  0  0
  1  2  1  0
  2  3  1  0
  3  4  1  0
  4  5  2  0
  4  6  1  0
  6  7  1  0
  7  8  1  0
  8  9  1  1
  8 19  1  0
  9 10  1  0
 10 11  1  6
 10 12  1  0
 12 13  1  0
 13 14  2  0
 13 15  1  0
 15 16  1  1
 15 17  1  0
 17 18  1  0
 20 19  1  1
 20 21  1  0
 20 23  1  0
 20 33  1  0
 21 22  1  0
 24 23  1  6
 24 25  1  0
 24 31  1  0
 25 26  1  0
 26 27  1  6
 26 30  1  0
 27 28  1  0
 27 29  2  0
 30 31  1  0
 31 32  1  1
 32 33  1  0
 33 34  1  1
 33 35  1  0
M  END
