
     RDKit          3D

 34 35  0  0  0  0  0  0  0  0999 V2000
    1.0130   -3.5940   -0.0850 C   0  0  0  0  0  0  0  0  0  0  0  0
   -0.2630   -3.3220    0.6700 C   0  0  1  0  0  0  0  0  0  0  0  0
   -0.0720   -2.3880    1.7630 N   0  0  0  0  0  0  0  0  0  0  0  0
    0.8650   -1.3520    1.7960 C   0  0  0  0  0  0  0  0  0  0  0  0
    1.5160   -1.1470    2.8700 O   0  0  0  0  0  0  0  0  0  0  0  0
    1.1840   -0.4410    0.6650 C   0  0  2  0  0  0  0  0  0  0  0  0
    2.5720   -0.1680    0.6720 O   0  0  0  0  0  0  0  0  0  0  0  0
    3.4310   -0.5180   -0.3300 C   0  0  0  0  0  0  0  0  0  0  0  0
    2.9910   -1.1180   -1.3280 O   0  0  0  0  0  0  0  0  0  0  0  0
    4.8980   -0.2060   -0.2760 C   0  0  1  0  0  0  0  0  0  0  0  0
    5.5550   -0.6570   -1.3940 O   0  0  0  0  0  0  0  0  0  0  0  0
    6.1060    0.4270   -2.0350 C   0  0  0  0  0  0  0  0  0  0  0  0
    5.5740    1.5720   -1.4940 O   0  0  0  0  0  0  0  0  0  0  0  0
    5.1420    1.2870   -0.2080 C   0  0  2  0  0  0  0  0  0  0  0  0
    6.1770    1.5420    0.8460 C   0  0  0  0  0  0  0  0  0  0  0  0
    3.8620    2.0570    0.0530 C   0  0  0  0  0  0  0  0  0  0  0  0
    0.3540    0.8160    0.6990 C   0  0  0  0  0  0  0  0  0  0  0  0
   -0.5780    0.9000   -0.3130 O   0  0  0  0  0  0  0  0  0  0  0  0
   -1.8400    1.2820    0.1270 C   0  0  1  0  0  0  0  0  0  0  0  0
   -2.2300    2.6640   -0.4040 C   0  0  0  0  0  0  0  0  0  0  0  0
   -1.2780    3.7180    0.0370 C   0  0  0  0  0  0  0  0  0  0  0  0
   -1.6550    4.9420   -0.4630 O   0  0  0  0  0  0  0  0  0  0  0  0
   -2.8600    5.4380   -0.0770 C   0  0  2  0  0  0  0  0  0  0  0  0
   -3.7570    5.6140   -1.1300 O   0  0  0  0  0  0  0  0  0  0  0  0
   -2.7420    6.6520    0.6370 O   0  0  0  0  0  0  0  0  0  0  0  0
   -2.9010    0.3220   -0.4230 C   0  0  0  0  0  0  0  0  0  0  0  0
   -3.2500   -0.7430    0.5630 C   0  0  0  0  0  0  0  0  0  0  0  0
   -3.6610   -2.0200   -0.1510 C   0  0  2  0  0  0  0  0  0  0  0  0
   -4.9930   -2.3190    0.0290 O   0  0  0  0  0  0  0  0  0  0  0  0
   -2.7420   -3.1490    0.2970 C   0  0  1  0  0  0  0  0  0  0  0  0
   -3.2830   -4.4700   -0.1970 C   0  0  0  0  0  0  0  0  0  0  0  0
   -4.5560   -4.6550    0.3390 O   0  0  0  0  0  0  0  0  0  0  0  0
   -1.3690   -2.8590   -0.2690 C   0  0  2  0  0  0  0  0  0  0  0  0
   -1.1640   -3.4740   -1.5020 O   0  0  0  0  0  0  0  0  0  0  0  0
  2  1  1  6
  2  3  1  0
  2 33  1  0
  3  4  1  0
  4  5  2  0
  4  6  1  0
  6  7  1  1
  6 17  1  0
  7  8  1  0
  8  9  2  0
 10  8  1  6
 10 11  1  0
 10 14  1  0
 11 12  1  0
 12 13  1  0
 13 14  1  0
 14 15  1  1
 14 16  1  0
 17 18  1  0
 18 19  1  0
 19 20  1  6
 19 26  1  0
 20 21  1  0
 21 22  1  0
 22 23  1  0
 23 24  1  6
 23 25  1  0
 26 27  1  0
 27 28  1  0
 28 29  1  1
 28 30  1  0
 30 31  1  6
 30 33  1  0
 31 32  1  0
 33 34  1  6
M  END
