
     RDKit          3D

 34 36  0  0  0  0  0  0  0  0999 V2000
    8.8990    2.9350    0.1740 C   0  0  0  0  0  0  0  0  0  0  0  0
    7.9290    1.8380    0.0040 N   0  0  0  0  0  0  0  0  0  0  0  0
    7.7940    0.9360    1.0820 C   0  0  0  0  0  0  0  0  0  0  0  0
    8.5030    1.1220    2.1190 O   0  0  0  0  0  0  0  0  0  0  0  0
    6.8750   -0.2020    1.0570 C   0  0  0  0  0  0  0  0  0  0  0  0
    6.0890   -0.4420   -0.0410 C   0  0  0  0  0  0  0  0  0  0  0  0
    5.2280   -1.5110   -0.0610 C   0  0  0  0  0  0  0  0  0  0  0  0
    4.4030   -1.8150   -1.1430 O   0  0  0  0  0  0  0  0  0  0  0  0
    3.1460   -1.2440   -1.3210 C   0  0  0  0  0  0  0  0  0  0  0  0
    2.0900   -1.8110   -0.6570 C   0  0  0  0  0  0  0  0  0  0  0  0
    0.7980   -1.2550   -0.8190 C   0  0  0  0  0  0  0  0  0  0  0  0
    0.5660   -0.1830   -1.6070 C   0  0  0  0  0  0  0  0  0  0  0  0
   -0.6970    0.3730   -1.8300 N   0  0  0  0  0  0  0  0  0  0  0  0
   -1.9000    0.0920   -1.1410 C   0  0  0  0  0  0  0  0  0  0  0  0
   -1.9120   -0.7130   -0.2180 O   0  0  0  0  0  0  0  0  0  0  0  0
   -3.1430    0.7360   -1.5000 N   0  0  0  0  0  0  0  0  0  0  0  0
   -4.3010    0.3980   -0.7290 C   0  0  0  0  0  0  0  0  0  0  0  0
   -5.5340    0.1910   -1.3020 C   0  0  0  0  0  0  0  0  0  0  0  0
   -6.6460   -0.1120   -0.5020 C   0  0  0  0  0  0  0  0  0  0  0  0
   -6.5740   -0.2160    0.8600 C   0  0  0  0  0  0  0  0  0  0  0  0
   -7.9260   -0.6120    1.9410 S   0  0  0  0  0  0  0  0  0  0  0  0
   -9.4970   -0.8530    1.1490 C   0  0  0  0  0  0  0  0  0  0  0  0
  -10.0320    0.4230    0.6290 C   0  0  0  0  0  0  0  0  0  0  0  0
  -10.6220    1.1950    1.4630 O   0  0  0  0  0  0  0  0  0  0  0  0
   -9.9700    0.8780   -0.6600 O   0  0  0  0  0  0  0  0  0  0  0  0
   -5.3180   -0.0040    1.4500 C   0  0  0  0  0  0  0  0  0  0  0  0
   -5.2330   -0.0980    2.8110 F   0  0  0  0  0  0  0  0  0  0  0  0
   -4.2280    0.2930    0.6540 C   0  0  0  0  0  0  0  0  0  0  0  0
    1.6620    0.3750   -2.2740 C   0  0  0  0  0  0  0  0  0  0  0  0
    1.4900    1.4510   -3.0780 F   0  0  0  0  0  0  0  0  0  0  0  0
    2.9190   -0.1630   -2.1160 C   0  0  0  0  0  0  0  0  0  0  0  0
    5.1660   -2.3450    1.0520 C   0  0  0  0  0  0  0  0  0  0  0  0
    5.9620   -2.0840    2.1370 C   0  0  0  0  0  0  0  0  0  0  0  0
    6.7960   -1.0350    2.1370 N   0  0  0  0  0  0  0  0  0  0  0  0
  1  2  1  0
  2  3  1  0
  3  4  2  0
  3  5  1  0
  5  6  2  0
  5 34  1  0
  6  7  1  0
  7  8  1  0
  7 32  2  0
  8  9  1  0
  9 10  2  0
  9 31  1  0
 10 11  1  0
 11 12  2  0
 12 13  1  0
 12 29  1  0
 13 14  1  0
 14 15  2  0
 14 16  1  0
 16 17  1  0
 17 18  2  0
 17 28  1  0
 18 19  1  0
 19 20  2  0
 20 21  1  0
 20 26  1  0
 21 22  1  0
 22 23  1  0
 23 24  2  0
 23 25  1  0
 26 27  1  0
 26 28  2  0
 29 30  1  0
 29 31  2  0
 32 33  1  0
 33 34  2  0
M  END
