
     RDKit          3D

 35 35  0  0  0  0  0  0  0  0999 V2000
   -3.5830    2.1450    1.7000 C   0  0  0  0  0  0  0  0  0  0  0  0
   -5.0040    1.8240    1.3180 C   0  0  0  0  0  0  0  0  0  0  0  0
   -5.2480    1.8560   -0.1610 C   0  0  2  0  0  0  0  0  0  0  0  0
   -6.6140    1.5390   -0.3450 O   0  0  0  0  0  0  0  0  0  0  0  0
   -4.4770    0.8100   -0.9290 C   0  0  0  0  0  0  0  0  0  0  0  0
   -4.8710   -0.5490   -0.4490 C   0  0  0  0  0  0  0  0  0  0  0  0
   -4.1440   -1.6560   -1.1720 C   0  0  2  0  0  0  0  0  0  0  0  0
   -4.5660   -2.8760   -0.6780 O   0  0  0  0  0  0  0  0  0  0  0  0
   -2.6370   -1.5880   -0.9770 C   0  0  2  0  0  0  0  0  0  0  0  0
   -2.1040   -2.6430   -1.6940 O   0  0  0  0  0  0  0  0  0  0  0  0
   -0.9600   -3.3490   -1.6090 C   0  0  0  0  0  0  0  0  0  0  0  0
   -0.8060   -4.5590   -1.2940 O   0  0  0  0  0  0  0  0  0  0  0  0
    0.3100   -2.6360   -1.9230 C   0  0  0  0  0  0  0  0  0  0  0  0
    1.4430   -3.2860   -1.4420 O   0  0  0  0  0  0  0  0  0  0  0  0
    2.4420   -2.7760   -0.6620 C   0  0  0  0  0  0  0  0  0  0  0  0
    2.8960   -3.4050    0.3550 O   0  0  0  0  0  0  0  0  0  0  0  0
    3.0870   -1.4550   -0.9190 C   0  0  2  0  0  0  0  0  0  0  0  0
    4.4590   -1.7490   -1.1040 O   0  0  0  0  0  0  0  0  0  0  0  0
    3.0160   -0.5510    0.3050 C   0  0  1  0  0  0  0  0  0  0  0  0
    4.3210    0.1160    0.6070 C   0  0  1  0  0  0  0  0  0  0  0  0
    5.2990   -0.9090    0.8910 O   0  0  0  0  0  0  0  0  0  0  0  0
    4.8830    1.0310   -0.4080 C   0  0  0  0  0  0  0  0  0  0  0  0
    4.1470    2.2520   -0.7940 C   0  0  1  0  0  0  0  0  0  0  0  0
    3.9390    3.1740    0.3160 N   0  0  0  0  0  0  0  0  0  0  0  0
    4.9730    2.9420   -1.8600 C   0  0  0  0  0  0  0  0  0  0  0  0
    5.2290    2.2820   -2.8850 O   0  0  0  0  0  0  0  0  0  0  0  0
    5.4080    4.2270   -1.6890 O   0  0  0  0  0  0  0  0  0  0  0  0
    1.8570    0.3730    0.3230 C   0  0  0  0  0  0  0  0  0  0  0  0
    0.6880   -0.2010    1.1230 C   0  0  1  0  0  0  0  0  0  0  0  0
    0.7660    0.1460    2.4690 O   0  0  0  0  0  0  0  0  0  0  0  0
    0.7510   -0.9520    3.3060 C   0  0  0  0  0  0  0  0  0  0  0  0
   -0.6360    0.3370    0.6050 C   0  0  0  0  0  0  0  0  0  0  0  0
   -1.7180   -0.4300    1.0290 O   0  0  0  0  0  0  0  0  0  0  0  0
   -2.2690   -1.5380    0.4440 C   0  0  0  0  0  0  0  0  0  0  0  0
   -2.4750   -2.5620    1.1340 O   0  0  0  0  0  0  0  0  0  0  0  0
  1  2  1  0
  2  3  1  0
  3  4  1  1
  3  5  1  0
  5  6  1  0
  6  7  1  0
  7  8  1  1
  7  9  1  0
  9 10  1  1
  9 34  1  0
 10 11  1  0
 11 12  2  0
 11 13  1  0
 13 14  1  0
 14 15  1  0
 15 16  2  0
 15 17  1  0
 17 18  1  1
 17 19  1  0
 19 20  1  0
 19 28  1  6
 20 21  1  6
 20 22  1  0
 22 23  1  0
 23 24  1  1
 23 25  1  0
 25 26  2  0
 25 27  1  0
 28 29  1  0
 29 30  1  1
 29 32  1  0
 30 31  1  0
 32 33  1  0
 33 34  1  0
 34 35  2  0
M  END
