
     RDKit          3D

 35 39  0  0  0  0  0  0  0  0999 V2000
   -3.2390   -2.1070   -2.3810 C   0  0  0  0  0  0  0  0  0  0  0  0
   -3.6190   -1.5120   -1.0610 N   0  0  1  0  0  0  0  0  0  0  0  0
   -2.4720   -1.1030   -0.3700 C   0  0  0  0  0  0  0  0  0  0  0  0
   -2.4710   -0.6980    0.9480 C   0  0  0  0  0  0  0  0  0  0  0  0
   -1.3540   -0.3030    1.6250 C   0  0  0  0  0  0  0  0  0  0  0  0
   -0.0950   -0.2920    0.9860 C   0  0  0  0  0  0  0  0  0  0  0  0
    0.9920    0.0650    1.7840 N   0  0  0  0  0  0  0  0  0  0  0  0
    2.3220    0.1660    1.3110 C   0  0  0  0  0  0  0  0  0  0  0  0
    2.6180   -0.0370    0.1420 O   0  0  0  0  0  0  0  0  0  0  0  0
    3.4130    0.5320    2.3130 C   0  0  0  0  0  0  0  0  0  0  0  0
    4.5090   -0.3720    2.0780 N   0  0  0  0  0  0  0  0  0  0  0  0
    4.5240   -1.6400    2.6240 C   0  0  0  0  0  0  0  0  0  0  0  0
    3.6160   -2.1460    3.3260 O   0  0  0  0  0  0  0  0  0  0  0  0
    5.6520   -2.1580    2.2580 O   0  0  0  0  0  0  0  0  0  0  0  0
    6.3670   -1.3300    1.5230 C   0  0  0  0  0  0  0  0  0  0  0  0
    7.6010   -1.3880    0.9100 C   0  0  0  0  0  0  0  0  0  0  0  0
    8.1030   -0.3250    0.1940 C   0  0  0  0  0  0  0  0  0  0  0  0
    9.3300   -0.3800   -0.3870 N   0  0  0  0  0  0  0  0  0  0  0  0
    9.8420    0.6680   -1.0720 C   0  0  0  0  0  0  0  0  0  0  0  0
    9.1430    1.8510   -1.2160 C   0  0  0  0  0  0  0  0  0  0  0  0
    7.9040    1.9130   -0.6340 C   0  0  0  0  0  0  0  0  0  0  0  0
    7.3600    0.8330    0.0800 C   0  0  0  0  0  0  0  0  0  0  0  0
    6.1310    0.9210    0.6760 C   0  0  0  0  0  0  0  0  0  0  0  0
    5.6290   -0.1760    1.4060 C   0  0  0  0  0  0  0  0  0  0  0  0
   -0.0740   -0.6800   -0.2940 C   0  0  0  0  0  0  0  0  0  0  0  0
   -1.2340   -1.0810   -0.9800 C   0  0  0  0  0  0  0  0  0  0  0  0
   -4.5970   -0.5440   -1.3900 C   0  0  1  0  0  0  0  0  0  0  0  0
   -5.9270   -1.2380   -1.5370 C   0  0  0  0  0  0  0  0  0  0  0  0
   -6.9020   -0.7810   -0.5250 C   0  0  0  0  0  0  0  0  0  0  0  0
   -7.1570    0.7400   -0.6180 C   0  0  0  0  0  0  0  0  0  0  0  0
   -5.9650    1.4020   -0.9500 N   0  0  0  0  0  0  0  0  0  0  0  0
   -5.8850    2.6670   -1.4310 C   0  0  0  0  0  0  0  0  0  0  0  0
   -6.2180    3.6720   -0.3640 C   0  0  0  0  0  0  0  0  0  0  0  0
   -6.4850    4.4140    0.4310 N   0  0  0  0  0  0  0  0  0  0  0  0
   -4.7780    0.6610   -0.5600 C   0  0  0  0  0  0  0  0  0  0  0  0
  2  1  1  6
  2  3  1  0
  2 27  1  0
  3  4  2  0
  3 26  1  0
  4  5  1  0
  5  6  2  0
  6  7  1  0
  6 25  1  0
  7  8  1  0
  8  9  2  0
  8 10  1  0
 10 11  1  0
 11 12  1  0
 11 24  1  0
 12 13  2  0
 12 14  1  0
 14 15  1  0
 15 16  2  0
 15 24  1  0
 16 17  1  0
 17 18  2  0
 17 22  1  0
 18 19  1  0
 19 20  2  0
 20 21  1  0
 21 22  2  0
 22 23  1  0
 23 24  2  0
 25 26  2  0
 27 28  1  1
 27 35  1  0
 28 29  1  0
 29 30  1  0
 30 31  1  0
 31 32  1  0
 31 35  1  0
 32 33  1  0
 33 34  3  0
M  CHG  1   2   1
M  END
