
     RDKit          3D

 34 37  0  0  0  0  0  0  0  0999 V2000
    0.3650   -4.4000    0.4110 C   0  0  0  0  0  0  0  0  0  0  0  0
   -1.1140   -4.2720    0.1570 C   0  0  0  0  0  0  0  0  0  0  0  0
   -1.9230   -5.2160   -0.1600 N   0  0  0  0  0  0  0  0  0  0  0  0
   -3.2150   -4.7350   -0.3170 N   0  0  0  0  0  0  0  0  0  0  0  0
   -3.2070   -3.3140   -0.0670 C   0  0  0  0  0  0  0  0  0  0  0  0
   -4.1750   -2.5410   -0.1150 O   0  0  0  0  0  0  0  0  0  0  0  0
   -1.8230   -3.0010    0.2470 C   0  0  0  0  0  0  0  0  0  0  0  0
   -1.2600   -1.8390    0.5330 C   0  0  0  0  0  0  0  0  0  0  0  0
   -1.9970   -0.5730    0.6220 C   0  0  0  0  0  0  0  0  0  0  0  0
   -3.0760   -0.5420    1.5140 C   0  0  0  0  0  0  0  0  0  0  0  0
   -3.8330    0.5890    1.6370 C   0  0  0  0  0  0  0  0  0  0  0  0
   -4.8790    0.6180    2.5020 F   0  0  0  0  0  0  0  0  0  0  0  0
   -3.4910    1.6700    0.8610 C   0  0  0  0  0  0  0  0  0  0  0  0
   -4.2990    2.8130    1.0230 O   0  0  0  0  0  0  0  0  0  0  0  0
   -3.9850    3.9610    0.2420 C   0  0  0  0  0  0  0  0  0  0  0  0
   -4.9370    5.0540    0.5470 C   0  0  0  0  0  0  0  0  0  0  0  0
   -4.7870    6.2890   -0.1300 N   0  0  0  0  0  0  0  0  0  0  0  0
   -5.8720    4.8920    1.3980 O   0  0  0  0  0  0  0  0  0  0  0  0
   -2.4520    1.6580   -0.0050 C   0  0  0  0  0  0  0  0  0  0  0  0
   -1.6560    0.5070   -0.1530 C   0  0  0  0  0  0  0  0  0  0  0  0
   -0.6240    0.5570   -1.0480 O   0  0  0  0  0  0  0  0  0  0  0  0
    0.7090    0.4150   -0.9180 C   0  0  0  0  0  0  0  0  0  0  0  0
    1.3510   -0.7420   -1.2690 C   0  0  0  0  0  0  0  0  0  0  0  0
    2.7130   -0.9220   -1.1500 C   0  0  0  0  0  0  0  0  0  0  0  0
    3.5190    0.0750   -0.6600 C   0  0  0  0  0  0  0  0  0  0  0  0
    4.9930   -0.1030   -0.5250 C   0  0  0  0  0  0  0  0  0  0  0  0
    5.7350    0.8800   -0.0500 C   0  0  0  0  0  0  0  0  0  0  0  0
    7.3740    0.2540   -0.0610 S   0  0  1  0  0  0  0  0  0  0  0  0
    8.2730    1.0420   -0.9520 O   0  0  0  0  0  0  0  0  0  0  0  0
    7.8950    0.1650    1.3430 O   0  0  0  0  0  0  0  0  0  0  0  0
    6.9760   -1.3120   -0.7090 C   0  0  0  0  0  0  0  0  0  0  0  0
    5.6720   -1.2970   -0.8830 C   0  0  0  0  0  0  0  0  0  0  0  0
    2.8940    1.2460   -0.3020 C   0  0  0  0  0  0  0  0  0  0  0  0
    1.5340    1.4320   -0.4190 C   0  0  0  0  0  0  0  0  0  0  0  0
  1  2  1  0
  2  3  2  0
  2  7  1  0
  3  4  1  0
  4  5  1  0
  5  6  2  0
  5  7  1  0
  7  8  2  3
  8  9  1  0
  9 10  2  0
  9 20  1  0
 10 11  1  0
 11 12  1  0
 11 13  2  0
 13 14  1  0
 13 19  1  0
 14 15  1  0
 15 16  1  0
 16 17  1  0
 16 18  2  0
 19 20  2  0
 20 21  1  0
 21 22  1  0
 22 23  2  0
 22 34  1  0
 23 24  1  0
 24 25  2  0
 25 26  1  0
 25 33  1  0
 26 27  2  0
 26 32  1  0
 28 27  1  1
 28 29  2  0
 28 30  2  0
 28 31  1  0
 31 32  2  0
 33 34  2  0
M  END
