
     RDKit          3D

 35 39  0  0  0  0  0  0  0  0999 V2000
    4.2630    0.5940   -2.4560 C   0  0  0  0  0  0  0  0  0  0  0  0
    4.9700   -0.4570   -1.6380 C   0  0  0  0  0  0  0  0  0  0  0  0
    5.5130   -1.5740   -2.1810 N   0  0  0  0  0  0  0  0  0  0  0  0
    6.0660   -2.2940   -1.2350 N   0  0  0  0  0  0  0  0  0  0  0  0
    5.9100   -1.6900   -0.0580 C   0  0  0  0  0  0  0  0  0  0  0  0
    5.2100   -0.5130   -0.2920 C   0  0  0  0  0  0  0  0  0  0  0  0
    4.8540    0.4120    0.7900 C   0  0  1  0  0  0  0  0  0  0  0  0
    3.5410    1.1180    0.5690 C   0  0  0  0  0  0  0  0  0  0  0  0
    2.3950    0.1570    0.4390 C   0  0  0  0  0  0  0  0  0  0  0  0
    2.6610   -1.0310    0.5110 O   0  0  0  0  0  0  0  0  0  0  0  0
    1.0720    0.5940    0.2430 N   0  0  0  0  0  0  0  0  0  0  0  0
   -0.0310   -0.2270    0.1110 C   0  0  0  0  0  0  0  0  0  0  0  0
   -0.0010   -1.5810   -0.0050 C   0  0  0  0  0  0  0  0  0  0  0  0
   -1.0700   -2.3810   -0.1670 N   0  0  0  0  0  0  0  0  0  0  0  0
   -2.3180   -1.8790   -0.2310 C   0  0  0  0  0  0  0  0  0  0  0  0
   -3.4430   -2.7700   -0.3740 N   0  0  0  0  0  0  0  0  0  0  0  0
   -4.4760   -3.1390    0.5370 C   0  0  0  0  0  0  0  0  0  0  0  0
   -5.6860   -3.4540   -0.3240 C   0  0  0  0  0  0  0  0  0  0  0  0
   -5.1050   -3.8800   -1.6600 C   0  0  0  0  0  0  0  0  0  0  0  0
   -3.6540   -3.4700   -1.6530 C   0  0  0  0  0  0  0  0  0  0  0  0
   -2.4430   -0.5170   -0.1250 C   0  0  0  0  0  0  0  0  0  0  0  0
   -3.8200    0.0210   -0.2380 C   0  0  0  0  0  0  0  0  0  0  0  0
   -1.3210    0.3230    0.0470 C   0  0  0  0  0  0  0  0  0  0  0  0
   -1.6120    1.7380    0.1880 C   0  0  0  0  0  0  0  0  0  0  0  0
   -0.7320    2.5900    0.3810 O   0  0  0  0  0  0  0  0  0  0  0  0
   -2.9050    2.2610    0.1190 O   0  0  0  0  0  0  0  0  0  0  0  0
   -3.1930    3.5890    0.2500 C   0  0  0  0  0  0  0  0  0  0  0  0
   -3.4570    4.0830    1.5120 C   0  0  0  0  0  0  0  0  0  0  0  0
   -3.7550    5.4280    1.6890 C   0  0  0  0  0  0  0  0  0  0  0  0
   -3.7780    6.2240    0.6010 N   0  0  0  0  0  0  0  0  0  0  0  0
   -3.5230    5.7520   -0.6310 C   0  0  0  0  0  0  0  0  0  0  0  0
   -3.2210    4.4270   -0.8690 C   0  0  0  0  0  0  0  0  0  0  0  0
    4.9730   -0.1460    2.1760 C   0  0  0  0  0  0  0  0  0  0  0  0
    5.2740   -1.5980    2.2690 C   0  0  0  0  0  0  0  0  0  0  0  0
    6.3480   -2.0580    1.3390 C   0  0  0  0  0  0  0  0  0  0  0  0
  1  2  1  0
  2  3  1  0
  2  6  2  0
  3  4  1  0
  4  5  2  0
  5  6  1  0
  5 35  1  0
  6  7  1  0
  7  8  1  6
  7 33  1  0
  8  9  1  0
  9 10  2  0
  9 11  1  0
 11 12  1  0
 12 13  2  0
 12 23  1  0
 13 14  1  0
 14 15  2  0
 15 16  1  0
 15 21  1  0
 16 17  1  0
 16 20  1  0
 17 18  1  0
 18 19  1  0
 19 20  1  0
 21 22  1  0
 21 23  2  0
 23 24  1  0
 24 25  2  0
 24 26  1  0
 26 27  1  0
 27 28  2  0
 27 32  1  0
 28 29  1  0
 29 30  2  0
 30 31  1  0
 31 32  2  0
 33 34  1  0
 34 35  1  0
M  CHG  1  30   1
M  END
