
     RDKit          3D

 35 39  0  0  0  0  0  0  0  0999 V2000
   -5.9980   -1.8620   -2.3220 C   0  0  0  0  0  0  0  0  0  0  0  0
   -6.3320   -1.3840   -0.9600 C   0  0  0  0  0  0  0  0  0  0  0  0
   -7.1030   -2.1810   -0.2080 C   0  0  0  0  0  0  0  0  0  0  0  0
   -7.5560   -1.9000    1.1520 C   0  0  0  0  0  0  0  0  0  0  0  0
   -7.1040   -0.5870    1.6090 C   0  0  0  0  0  0  0  0  0  0  0  0
   -6.3680    0.1850    0.8750 C   0  0  0  0  0  0  0  0  0  0  0  0
   -5.9060   -0.1330   -0.4710 N   0  0  0  0  0  0  0  0  0  0  0  0
   -5.1500    0.8610   -1.1720 C   0  0  0  0  0  0  0  0  0  0  0  0
   -3.9370    0.5430   -1.9100 C   0  0  0  0  0  0  0  0  0  0  0  0
   -2.8380    0.0220   -1.1620 N   0  0  0  0  0  0  0  0  0  0  0  0
   -2.8270   -1.4950   -1.1260 C   0  0  0  0  0  0  0  0  0  0  0  0
   -1.7590    0.6570   -0.5120 C   0  0  0  0  0  0  0  0  0  0  0  0
   -0.9590   -0.2130    0.0480 O   0  0  0  0  0  0  0  0  0  0  0  0
   -1.3770    2.0340   -0.3570 C   0  0  0  0  0  0  0  0  0  0  0  0
   -2.2480    3.0950   -0.6380 C   0  0  0  0  0  0  0  0  0  0  0  0
   -1.8670    4.4040   -0.3750 C   0  0  0  0  0  0  0  0  0  0  0  0
   -0.6310    4.6610    0.1650 C   0  0  0  0  0  0  0  0  0  0  0  0
    0.1570    3.6350    0.4130 N   0  0  0  0  0  0  0  0  0  0  0  0
   -0.1230    2.3300    0.1890 C   0  0  0  0  0  0  0  0  0  0  0  0
    0.8730    1.3760    0.4290 N   0  0  0  0  0  0  0  0  0  0  0  0
    2.1230    1.8560    1.0290 C   0  0  0  0  0  0  0  0  0  0  0  0
    2.1960    3.0760    1.3200 O   0  0  0  0  0  0  0  0  0  0  0  0
    3.1960    0.9620    1.2600 N   0  0  0  0  0  0  0  0  0  0  0  0
    4.4720    1.3930    1.8230 C   0  0  0  0  0  0  0  0  0  0  0  0
    5.4730    0.5710    1.0860 C   0  0  0  0  0  0  0  0  0  0  0  0
    4.7700   -0.6740    0.6630 C   0  0  1  0  0  0  0  0  0  0  0  0
    4.9180   -0.8860   -0.8360 C   0  0  0  0  0  0  0  0  0  0  0  0
    6.3590   -1.1280   -1.1060 C   0  0  0  0  0  0  0  0  0  0  0  0
    7.1640   -0.9220   -2.2000 C   0  0  0  0  0  0  0  0  0  0  0  0
    8.4490   -1.3520   -1.8650 C   0  0  0  0  0  0  0  0  0  0  0  0
    8.4140   -1.7940   -0.6280 O   0  0  0  0  0  0  0  0  0  0  0  0
    7.1850   -1.6780   -0.1360 C   0  0  0  0  0  0  0  0  0  0  0  0
    6.6890   -2.0440    1.2060 C   0  0  0  0  0  0  0  0  0  0  0  0
    5.2880   -1.8210    1.3570 N   0  0  0  0  0  0  0  0  0  0  0  0
    3.3350   -0.4450    1.0520 C   0  0  0  0  0  0  0  0  0  0  0  0
  1  2  1  0
  2  3  2  0
  2  7  1  0
  3  4  1  0
  4  5  1  0
  5  6  2  0
  6  7  1  0
  7  8  1  0
  8  9  1  0
  9 10  1  0
 10 11  1  0
 10 12  1  0
 12 13  2  0
 12 14  1  0
 14 15  2  0
 14 19  1  0
 15 16  1  0
 16 17  2  0
 17 18  1  0
 18 19  2  0
 19 20  1  0
 20 21  1  0
 21 22  2  0
 21 23  1  0
 23 24  1  0
 23 35  1  0
 24 25  1  0
 26 25  1  1
 26 27  1  0
 26 34  1  0
 26 35  1  0
 27 28  1  0
 28 29  1  0
 28 32  2  0
 29 30  2  0
 30 31  1  0
 31 32  1  0
 32 33  1  0
 33 34  1  0
M  CHG  1  34   1
M  END
