
     RDKit          3D

 28 30  0  0  0  0  0  0  0  0999 V2000
   -4.5210    3.3610   -0.5230 C   0  0  0  0  0  0  0  0  0  0  0  0
   -3.6460    3.3220    0.6840 C   0  0  0  0  0  0  0  0  0  0  0  0
   -2.6320    2.3730    0.6550 O   0  0  0  0  0  0  0  0  0  0  0  0
   -2.8130    1.0020    0.5430 C   0  0  0  0  0  0  0  0  0  0  0  0
   -4.0370    0.4030    0.4470 C   0  0  0  0  0  0  0  0  0  0  0  0
   -4.1870   -0.9560    0.3370 C   0  0  0  0  0  0  0  0  0  0  0  0
   -5.4410   -1.5550    0.2390 C   0  0  0  0  0  0  0  0  0  0  0  0
   -5.5690   -2.9160    0.1300 C   0  0  0  0  0  0  0  0  0  0  0  0
   -4.4680   -3.7440    0.1130 C   0  0  0  0  0  0  0  0  0  0  0  0
   -3.2110   -3.1490    0.2100 C   0  0  0  0  0  0  0  0  0  0  0  0
   -3.0840   -1.7810    0.3200 C   0  0  0  0  0  0  0  0  0  0  0  0
   -1.8260   -1.1940    0.4160 C   0  0  0  0  0  0  0  0  0  0  0  0
   -1.6790    0.1710    0.5260 C   0  0  0  0  0  0  0  0  0  0  0  0
   -0.4670    0.7630    0.6180 O   0  0  0  0  0  0  0  0  0  0  0  0
    0.8140    0.2790    0.6020 C   0  0  0  0  0  0  0  0  0  0  0  0
    1.2380   -0.3850   -0.6600 C   0  0  0  0  0  0  0  0  0  0  0  0
    2.5610   -0.8670   -0.6250 O   0  0  0  0  0  0  0  0  0  0  0  0
    3.6780   -0.1200   -0.4250 C   0  0  0  0  0  0  0  0  0  0  0  0
    3.7200    1.1720   -0.7290 C   0  0  0  0  0  0  0  0  0  0  0  0
    4.9340    1.9790   -0.5110 C   0  0  0  0  0  0  0  0  0  0  0  0
    4.9560    3.3590   -0.8440 N   0  0  0  0  0  0  0  0  0  0  0  0
    6.0390    1.4530    0.0000 C   0  0  0  0  0  0  0  0  0  0  0  0
    6.0900    0.0330    0.3690 C   0  0  0  0  0  0  0  0  0  0  0  0
    7.1200   -0.4820    0.8510 O   0  0  0  0  0  0  0  0  0  0  0  0
    4.8640   -0.7450    0.1380 C   0  0  0  0  0  0  0  0  0  0  0  0
    4.8430   -2.0160    0.4460 C   0  0  0  0  0  0  0  0  0  0  0  0
    3.6900   -2.9080    0.2690 C   0  0  0  0  0  0  0  0  0  0  0  0
    6.3210   -2.7250    1.1290 Cl  0  0  0  0  0  0  0  0  0  0  0  0
  1  2  1  0
  2  3  1  0
  3  4  1  0
  4  5  2  0
  4 13  1  0
  5  6  1  0
  6  7  2  0
  6 11  1  0
  7  8  1  0
  8  9  2  0
  9 10  1  0
 10 11  2  0
 11 12  1  0
 12 13  2  0
 13 14  1  0
 14 15  1  0
 15 16  1  0
 16 17  1  0
 17 18  1  0
 18 19  2  0
 18 25  1  0
 19 20  1  0
 20 21  1  0
 20 22  2  0
 22 23  1  0
 23 24  2  0
 23 25  1  0
 25 26  2  3
 26 27  1  0
 26 28  1  0
M  END
