
     RDKit          3D

 29 33  0  0  0  0  0  0  0  0999 V2000
   -4.2990   -2.8880    1.0770 O   0  0  0  0  0  0  0  0  0  0  0  0
   -3.7960   -1.7360    1.0430 C   0  0  0  0  0  0  0  0  0  0  0  0
   -3.6540   -1.0570    2.2390 O   0  0  0  0  0  0  0  0  0  0  0  0
   -3.3720   -1.1290   -0.2290 C   0  0  1  0  0  0  0  0  0  0  0  0
   -4.1310    0.1770   -0.5050 C   0  0  1  0  0  0  0  0  0  0  0  0
   -3.4490    1.2960    0.2530 C   0  0  0  0  0  0  0  0  0  0  0  0
   -2.1600    1.6550   -0.4920 C   0  0  0  0  0  0  0  0  0  0  0  0
   -1.6540    0.3410   -1.1030 C   0  0  2  0  0  0  0  0  0  0  0  0
   -2.5360    0.1190   -2.3400 C   0  0  0  0  0  0  0  0  0  0  0  0
   -3.9440    0.4980   -1.9930 C   0  0  0  0  0  0  0  0  0  0  0  0
   -1.9150   -0.7280   -0.0750 C   0  0  2  0  0  0  0  0  0  0  0  0
   -1.0380   -1.8740   -0.2130 N   0  0  0  0  0  0  0  0  0  0  0  0
    0.3620   -1.8000   -0.1070 C   0  0  0  0  0  0  0  0  0  0  0  0
    0.9480   -0.6180    0.1360 N   0  0  0  0  0  0  0  0  0  0  0  0
    2.3050   -0.5140    0.2450 C   0  0  0  0  0  0  0  0  0  0  0  0
    2.9140    0.7780    0.5080 C   0  0  0  0  0  0  0  0  0  0  0  0
    2.2640    1.9320    0.6640 N   0  0  0  0  0  0  0  0  0  0  0  0
    3.1280    2.9330    0.8940 N   0  0  0  0  0  0  0  0  0  0  0  0
    4.3700    2.4520    0.8940 C   0  0  0  0  0  0  0  0  0  0  0  0
    5.5700    3.0030    1.0700 N   0  0  0  0  0  0  0  0  0  0  0  0
    6.7120    2.2700    1.0200 C   0  0  0  0  0  0  0  0  0  0  0  0
    6.6280    0.9210    0.7820 C   0  0  0  0  0  0  0  0  0  0  0  0
    7.7460    0.1410    0.7230 F   0  0  0  0  0  0  0  0  0  0  0  0
    5.3950    0.3260    0.5970 C   0  0  0  0  0  0  0  0  0  0  0  0
    4.2490    1.0940    0.6520 C   0  0  0  0  0  0  0  0  0  0  0  0
    3.0690   -1.6030    0.1080 N   0  0  0  0  0  0  0  0  0  0  0  0
    2.5430   -2.8140   -0.1360 C   0  0  0  0  0  0  0  0  0  0  0  0
    1.1520   -2.9160   -0.2470 C   0  0  0  0  0  0  0  0  0  0  0  0
    0.6460   -4.1470   -0.4930 F   0  0  0  0  0  0  0  0  0  0  0  0
  1  2  2  0
  2  3  1  0
  4  2  1  1
  4  5  1  0
  4 11  1  0
  5  6  1  1
  5 10  1  0
  6  7  1  0
  8  7  1  1
  8  9  1  0
  8 11  1  0
  9 10  1  0
 11 12  1  6
 12 13  1  0
 13 14  2  0
 13 28  1  0
 14 15  1  0
 15 16  1  0
 15 26  2  0
 16 17  1  0
 16 25  2  0
 17 18  1  0
 18 19  2  0
 19 20  1  0
 19 25  1  0
 20 21  2  0
 21 22  1  0
 22 23  1  0
 22 24  2  0
 24 25  1  0
 26 27  1  0
 27 28  2  0
 28 29  1  0
M  END
