
     RDKit          3D

 29 31  0  0  0  0  0  0  0  0999 V2000
   -7.5480    3.0000   -0.8300 C   0  0  0  0  0  0  0  0  0  0  0  0
   -6.2690    2.2910   -0.5870 C   0  0  0  0  0  0  0  0  0  0  0  0
   -5.8090    1.4010   -1.5310 C   0  0  0  0  0  0  0  0  0  0  0  0
   -4.6250    0.7350   -1.3200 C   0  0  0  0  0  0  0  0  0  0  0  0
   -3.8470    0.9180   -0.1760 C   0  0  0  0  0  0  0  0  0  0  0  0
   -2.6000    0.1810   -0.0030 C   0  0  0  0  0  0  0  0  0  0  0  0
   -2.3400   -0.4350    1.1990 C   0  0  0  0  0  0  0  0  0  0  0  0
   -1.1560   -1.1430    1.3910 C   0  0  0  0  0  0  0  0  0  0  0  0
   -0.2050   -1.2490    0.3820 C   0  0  0  0  0  0  0  0  0  0  0  0
    1.0100   -1.9590    0.5370 N   0  0  0  0  0  0  0  0  0  0  0  0
    0.9320   -3.3560    0.8690 C   0  0  0  0  0  0  0  0  0  0  0  0
    0.9140   -4.2290   -0.3870 C   0  0  0  0  0  0  0  0  0  0  0  0
    0.8360   -5.5570    0.0930 O   0  0  0  0  0  0  0  0  0  0  0  0
    2.2870   -1.3450    0.3920 C   0  0  0  0  0  0  0  0  0  0  0  0
    2.2340   -0.0980    0.1470 O   0  0  0  0  0  0  0  0  0  0  0  0
    3.5250   -2.0780    0.5130 C   0  0  0  0  0  0  0  0  0  0  0  0
    4.7370   -1.6430    0.4070 C   0  0  0  0  0  0  0  0  0  0  0  0
    5.1910   -0.2870    0.1360 C   0  0  0  0  0  0  0  0  0  0  0  0
    6.5400    0.0890    0.0400 C   0  0  0  0  0  0  0  0  0  0  0  0
    6.6000    1.4400   -0.2230 C   0  0  0  0  0  0  0  0  0  0  0  0
    5.2850    1.8510   -0.2790 C   0  0  0  0  0  0  0  0  0  0  0  0
    4.8820    3.2590   -0.5450 C   0  0  0  0  0  0  0  0  0  0  0  0
    3.4890    3.3610   -0.5380 O   0  0  0  0  0  0  0  0  0  0  0  0
    4.5410    0.8160   -0.0660 O   0  0  0  0  0  0  0  0  0  0  0  0
   -0.4900   -0.6180   -0.8230 C   0  0  0  0  0  0  0  0  0  0  0  0
   -1.6580    0.0860   -1.0290 C   0  0  0  0  0  0  0  0  0  0  0  0
   -4.3180    1.8100    0.7590 C   0  0  0  0  0  0  0  0  0  0  0  0
   -3.4220    2.1210    2.2280 Cl  0  0  0  0  0  0  0  0  0  0  0  0
   -5.5050    2.4740    0.5430 C   0  0  0  0  0  0  0  0  0  0  0  0
  1  2  1  0
  2  3  2  0
  2 29  1  0
  3  4  1  0
  4  5  2  0
  5  6  1  0
  5 27  1  0
  6  7  2  0
  6 26  1  0
  7  8  1  0
  8  9  2  0
  9 10  1  0
  9 25  1  0
 10 11  1  0
 10 14  1  0
 11 12  1  0
 12 13  1  0
 14 15  2  0
 14 16  1  0
 16 17  2  3
 17 18  1  0
 18 19  2  0
 18 24  1  0
 19 20  1  0
 20 21  2  0
 21 22  1  0
 21 24  1  0
 22 23  1  0
 25 26  2  0
 27 28  1  0
 27 29  2  0
M  END
