
     RDKit          3D

 31 34  0  0  0  0  0  0  0  0999 V2000
   -2.6280   -3.8580    0.0350 C   0  0  0  0  0  0  0  0  0  0  0  0
   -2.7540   -2.8590    0.8920 C   0  0  0  0  0  0  0  0  0  0  0  0
   -3.7450   -1.8660    0.7050 N   0  0  0  0  0  0  0  0  0  0  0  0
   -5.1240   -2.1700    0.7660 C   0  0  0  0  0  0  0  0  0  0  0  0
   -5.8520   -1.1110    0.5720 C   0  0  0  0  0  0  0  0  0  0  0  0
   -5.0200    0.0590    0.3540 C   0  0  2  0  0  0  0  0  0  0  0  0
   -5.3090    0.6470   -1.0040 C   0  0  0  0  0  0  0  0  0  0  0  0
   -3.5920   -0.4500    0.4390 C   0  0  0  0  0  0  0  0  0  0  0  0
   -2.6050    0.2000    0.2970 N   0  0  0  0  0  0  0  0  0  0  0  0
   -1.4320    0.8090    0.1600 C   0  0  0  0  0  0  0  0  0  0  0  0
   -1.3150    2.1380   -0.0330 C   0  0  0  0  0  0  0  0  0  0  0  0
   -2.5380    2.9310   -0.0880 C   0  0  0  0  0  0  0  0  0  0  0  0
   -2.7620    3.9260   -1.0460 C   0  0  0  0  0  0  0  0  0  0  0  0
   -4.0050    4.4290   -0.7560 C   0  0  0  0  0  0  0  0  0  0  0  0
   -4.4430    3.7160    0.3410 C   0  0  0  0  0  0  0  0  0  0  0  0
   -3.5370    2.8330    0.7070 O   0  0  0  0  0  0  0  0  0  0  0  0
   -0.1410    0.0550    0.2160 C   0  0  0  0  0  0  0  0  0  0  0  0
   -0.2300   -1.1770    0.3930 O   0  0  0  0  0  0  0  0  0  0  0  0
    1.1150    0.6500    0.0850 N   0  0  0  0  0  0  0  0  0  0  0  0
    2.3430   -0.0650    0.1530 C   0  0  0  0  0  0  0  0  0  0  0  0
    2.4940   -1.3090    0.6740 C   0  0  0  0  0  0  0  0  0  0  0  0
    3.7260   -1.9900    0.7060 C   0  0  0  0  0  0  0  0  0  0  0  0
    4.8320   -1.3460    0.1770 C   0  0  0  0  0  0  0  0  0  0  0  0
    4.7280   -0.0770   -0.3640 C   0  0  0  0  0  0  0  0  0  0  0  0
    3.5060    0.5400   -0.3710 C   0  0  0  0  0  0  0  0  0  0  0  0
    6.0500    0.3230   -0.8290 C   0  0  0  0  0  0  0  0  0  0  0  0
    6.3510    1.4190   -1.3820 O   0  0  0  0  0  0  0  0  0  0  0  0
    6.9530   -0.7800   -0.5350 C   0  0  0  0  0  0  0  0  0  0  0  0
    8.3350   -0.8210   -0.8170 O   0  0  0  0  0  0  0  0  0  0  0  0
    9.1840   -0.5590    0.2950 C   0  0  0  0  0  0  0  0  0  0  0  0
    6.2320   -1.7230    0.0410 C   0  0  0  0  0  0  0  0  0  0  0  0
  1  2  2  0
  2  3  1  0
  3  4  1  0
  3  8  1  0
  4  5  2  0
  5  6  1  0
  6  7  1  6
  6  8  1  0
  8  9  2  3
  9 10  1  0
 10 11  2  3
 10 17  1  0
 11 12  1  0
 12 13  2  0
 12 16  1  0
 13 14  1  0
 14 15  2  0
 15 16  1  0
 17 18  2  0
 17 19  1  0
 19 20  1  0
 20 21  2  0
 20 25  1  0
 21 22  1  0
 22 23  2  0
 23 24  1  0
 23 31  1  0
 24 25  2  0
 24 26  1  0
 26 27  2  0
 26 28  1  0
 28 29  1  0
 28 31  2  0
 29 30  1  0
M  END
