
     RDKit          3D

 29 31  0  0  0  0  0  0  0  0999 V2000
    5.1560    3.0810    3.1550 C   0  0  0  0  0  0  0  0  0  0  0  0
    4.1690    2.4610    2.3150 O   0  0  0  0  0  0  0  0  0  0  0  0
    4.5570    1.3710    1.5590 C   0  0  0  0  0  0  0  0  0  0  0  0
    5.7500    0.9280    1.6020 O   0  0  0  0  0  0  0  0  0  0  0  0
    3.5300    0.7290    0.6880 C   0  0  0  0  0  0  0  0  0  0  0  0
    4.1200   -0.4080   -0.0360 C   0  0  0  0  0  0  0  0  0  0  0  0
    5.3420   -0.6670    0.1630 O   0  0  0  0  0  0  0  0  0  0  0  0
    3.3290   -1.1740   -0.9210 N   0  0  0  0  0  0  0  0  0  0  0  0
    3.9620   -2.2850   -1.6140 C   0  0  0  0  0  0  0  0  0  0  0  0
    3.8420   -3.5670   -0.8100 C   0  0  0  0  0  0  0  0  0  0  0  0
    4.4630   -3.3930    0.4240 O   0  0  0  0  0  0  0  0  0  0  0  0
    1.9780   -0.8750   -1.1240 C   0  0  0  0  0  0  0  0  0  0  0  0
    1.0470   -1.0800   -0.1420 C   0  0  0  0  0  0  0  0  0  0  0  0
   -0.3190   -0.8010   -0.3280 C   0  0  0  0  0  0  0  0  0  0  0  0
   -0.7810   -0.3040   -1.5200 C   0  0  0  0  0  0  0  0  0  0  0  0
   -2.1410   -0.0690   -1.8000 N   0  0  0  0  0  0  0  0  0  0  0  0
   -3.2190    0.1250   -0.9410 C   0  0  0  0  0  0  0  0  0  0  0  0
   -3.1470    0.5260    0.3740 C   0  0  0  0  0  0  0  0  0  0  0  0
   -4.2880    0.7550    1.1410 C   0  0  0  0  0  0  0  0  0  0  0  0
   -5.5370    0.5940    0.6220 C   0  0  0  0  0  0  0  0  0  0  0  0
   -5.6460    0.1870   -0.7130 C   0  0  0  0  0  0  0  0  0  0  0  0
   -4.5200   -0.0350   -1.4540 C   0  0  0  0  0  0  0  0  0  0  0  0
   -4.7400   -0.5480   -3.1310 Cl  0  0  0  0  0  0  0  0  0  0  0  0
   -6.5950    0.9030    1.6360 C   0  0  0  0  0  0  0  0  0  0  0  0
   -5.8340    0.9660    2.9220 C   0  0  0  0  0  0  0  0  0  0  0  0
   -4.4060    1.1870    2.5580 C   0  0  0  0  0  0  0  0  0  0  0  0
    0.1930   -0.1040   -2.5080 C   0  0  0  0  0  0  0  0  0  0  0  0
   -0.3120    0.4380   -3.8150 C   0  0  0  0  0  0  0  0  0  0  0  0
    1.5280   -0.3790   -2.3220 C   0  0  0  0  0  0  0  0  0  0  0  0
  1  2  1  0
  2  3  1  0
  3  4  2  0
  3  5  1  0
  5  6  1  0
  6  7  2  0
  6  8  1  0
  8  9  1  0
  8 12  1  0
  9 10  1  0
 10 11  1  0
 12 13  2  0
 12 29  1  0
 13 14  1  0
 14 15  2  0
 15 16  1  0
 15 27  1  0
 16 17  1  0
 17 18  2  0
 17 22  1  0
 18 19  1  0
 19 20  2  0
 19 26  1  0
 20 21  1  0
 20 24  1  0
 21 22  2  0
 22 23  1  0
 24 25  1  0
 25 26  1  0
 27 28  1  0
 27 29  2  0
M  END
