
     RDKit          3D

 28 30  0  0  0  0  0  0  0  0999 V2000
   -4.3870    0.5470    3.5140 C   0  0  0  0  0  0  0  0  0  0  0  0
   -3.4840   -0.6250    3.7630 C   0  0  0  0  0  0  0  0  0  0  0  0
   -2.3360   -0.5510    2.9630 O   0  0  0  0  0  0  0  0  0  0  0  0
   -2.4340   -0.5700    1.5830 C   0  0  0  0  0  0  0  0  0  0  0  0
   -3.6200   -0.6780    0.8950 C   0  0  0  0  0  0  0  0  0  0  0  0
   -3.7090   -0.6940   -0.4860 C   0  0  0  0  0  0  0  0  0  0  0  0
   -4.9240   -0.8040   -1.1310 C   0  0  0  0  0  0  0  0  0  0  0  0
   -5.0350   -0.8220   -2.5040 C   0  0  0  0  0  0  0  0  0  0  0  0
   -3.8580   -0.7250   -3.2230 C   0  0  0  0  0  0  0  0  0  0  0  0
   -2.6340   -0.6150   -2.5880 C   0  0  0  0  0  0  0  0  0  0  0  0
   -2.5470   -0.5980   -1.2130 C   0  0  0  0  0  0  0  0  0  0  0  0
   -1.3320   -0.4890   -0.5350 C   0  0  0  0  0  0  0  0  0  0  0  0
   -1.2390   -0.4720    0.8300 C   0  0  0  0  0  0  0  0  0  0  0  0
   -0.0550   -0.3680    1.4640 O   0  0  0  0  0  0  0  0  0  0  0  0
    1.2510   -0.2830    1.0850 C   0  0  0  0  0  0  0  0  0  0  0  0
    1.8540   -1.4300    0.3490 C   0  0  0  0  0  0  0  0  0  0  0  0
    3.2180   -1.0740    0.0780 O   0  0  0  0  0  0  0  0  0  0  0  0
    3.4730    0.0450   -0.6670 C   0  0  0  0  0  0  0  0  0  0  0  0
    2.6480    0.2920   -1.6820 C   0  0  0  0  0  0  0  0  0  0  0  0
    2.8610    1.4660   -2.5160 C   0  0  0  0  0  0  0  0  0  0  0  0
    1.9880    1.7430   -3.6040 N   0  0  0  0  0  0  0  0  0  0  0  0
    3.8600    2.3300   -2.3160 C   0  0  0  0  0  0  0  0  0  0  0  0
    4.7770    2.0850   -1.2150 C   0  0  0  0  0  0  0  0  0  0  0  0
    5.7380    2.8400   -0.9550 O   0  0  0  0  0  0  0  0  0  0  0  0
    4.5920    0.9110   -0.3540 C   0  0  0  0  0  0  0  0  0  0  0  0
    5.4110    0.6710    0.6430 C   0  0  0  0  0  0  0  0  0  0  0  0
    5.2470   -0.5110    1.5230 C   0  0  0  0  0  0  0  0  0  0  0  0
    6.7620    1.7380    1.0040 Cl  0  0  0  0  0  0  0  0  0  0  0  0
  1  2  1  0
  2  3  1  0
  3  4  1  0
  4  5  2  0
  4 13  1  0
  5  6  1  0
  6  7  2  0
  6 11  1  0
  7  8  1  0
  8  9  2  0
  9 10  1  0
 10 11  2  0
 11 12  1  0
 12 13  2  0
 13 14  1  0
 14 15  1  0
 15 16  1  0
 16 17  1  0
 17 18  1  0
 18 19  2  0
 18 25  1  0
 19 20  1  0
 20 21  1  0
 20 22  2  0
 22 23  1  0
 23 24  2  0
 23 25  1  0
 25 26  2  3
 26 27  1  0
 26 28  1  0
M  END
