
     RDKit          3D

 29 31  0  0  0  0  0  0  0  0999 V2000
    8.8220   -1.3120    1.9850 C   0  0  0  0  0  0  0  0  0  0  0  0
    7.4140   -1.1030    1.5610 C   0  0  0  0  0  0  0  0  0  0  0  0
    7.1610   -0.1350    0.6070 C   0  0  0  0  0  0  0  0  0  0  0  0
    5.8450    0.0940    0.1820 C   0  0  0  0  0  0  0  0  0  0  0  0
    4.7930   -0.6440    0.7120 C   0  0  0  0  0  0  0  0  0  0  0  0
    3.4440   -0.4020    0.2740 C   0  0  0  0  0  0  0  0  0  0  0  0
    2.9740    0.9090    0.1850 C   0  0  0  0  0  0  0  0  0  0  0  0
    1.6600    1.1780   -0.2270 C   0  0  0  0  0  0  0  0  0  0  0  0
    0.8090    0.1770   -0.5490 C   0  0  0  0  0  0  0  0  0  0  0  0
   -0.5570    0.3380   -0.9620 N   0  0  0  0  0  0  0  0  0  0  0  0
   -0.9410    0.9010   -2.2220 C   0  0  0  0  0  0  0  0  0  0  0  0
   -1.1180    2.4130   -2.1520 C   0  0  0  0  0  0  0  0  0  0  0  0
   -2.0870    2.7620   -1.2340 O   0  0  0  0  0  0  0  0  0  0  0  0
   -1.5460   -0.1040   -0.0340 C   0  0  0  0  0  0  0  0  0  0  0  0
   -1.1960   -0.5640    1.0980 O   0  0  0  0  0  0  0  0  0  0  0  0
   -2.9490   -0.0460   -0.3470 C   0  0  0  0  0  0  0  0  0  0  0  0
   -3.8660   -0.4600    0.5110 C   0  0  0  0  0  0  0  0  0  0  0  0
   -5.2810   -0.3950    0.1840 C   0  0  0  0  0  0  0  0  0  0  0  0
   -5.7950    0.0860   -0.9880 C   0  0  0  0  0  0  0  0  0  0  0  0
   -7.1580   -0.0130   -0.9320 C   0  0  0  0  0  0  0  0  0  0  0  0
   -7.4380   -0.5680    0.3090 C   0  0  0  0  0  0  0  0  0  0  0  0
   -8.7690   -0.8820    0.8570 C   0  0  0  0  0  0  0  0  0  0  0  0
   -9.7870   -0.8920   -0.0650 O   0  0  0  0  0  0  0  0  0  0  0  0
   -6.3000   -0.7820    0.9440 O   0  0  0  0  0  0  0  0  0  0  0  0
    1.2590   -1.1260   -0.4670 C   0  0  0  0  0  0  0  0  0  0  0  0
    2.5610   -1.4010   -0.0600 C   0  0  0  0  0  0  0  0  0  0  0  0
    5.0630   -1.6030    1.6600 C   0  0  0  0  0  0  0  0  0  0  0  0
    3.7340   -2.5200    2.3360 Cl  0  0  0  0  0  0  0  0  0  0  0  0
    6.3780   -1.8330    2.0860 C   0  0  0  0  0  0  0  0  0  0  0  0
  1  2  1  0
  2  3  2  0
  2 29  1  0
  3  4  1  0
  4  5  2  0
  5  6  1  0
  5 27  1  0
  6  7  2  0
  6 26  1  0
  7  8  1  0
  8  9  2  0
  9 10  1  0
  9 25  1  0
 10 11  1  0
 10 14  1  0
 11 12  1  0
 12 13  1  0
 14 15  2  0
 14 16  1  0
 16 17  2  3
 17 18  1  0
 18 19  2  0
 18 24  1  0
 19 20  1  0
 20 21  2  0
 21 22  1  0
 21 24  1  0
 22 23  1  0
 25 26  2  0
 27 28  1  0
 27 29  2  0
M  END
