
     RDKit          3D

 31 35  0  0  0  0  0  0  0  0999 V2000
    9.4950   -0.3430   -0.5180 C   0  0  0  0  0  0  0  0  0  0  0  0
    8.0250   -0.1060   -0.6980 C   0  0  2  0  0  0  0  0  0  0  0  0
    7.4190    0.3580    0.5020 O   0  0  0  0  0  0  0  0  0  0  0  0
    6.0350    0.2770    0.6630 C   0  0  0  0  0  0  0  0  0  0  0  0
    5.3830    1.1010    1.5540 C   0  0  0  0  0  0  0  0  0  0  0  0
    3.9950    1.0170    1.7130 C   0  0  0  0  0  0  0  0  0  0  0  0
    3.2690    0.1170    0.9870 C   0  0  0  0  0  0  0  0  0  0  0  0
    1.8190   -0.0250    1.1030 C   0  0  0  0  0  0  0  0  0  0  0  0
    1.0630    0.7400    1.9550 C   0  0  0  0  0  0  0  0  0  0  0  0
   -0.3040    0.5280    1.9900 C   0  0  0  0  0  0  0  0  0  0  0  0
   -0.9880    1.2370    2.7780 O   0  0  0  0  0  0  0  0  0  0  0  0
   -0.9040   -0.3920    1.2240 N   0  0  0  0  0  0  0  0  0  0  0  0
   -2.3310   -0.5640    1.3070 C   0  0  0  0  0  0  0  0  0  0  0  0
   -3.0290    0.3500    0.3050 C   0  0  1  0  0  0  0  0  0  0  0  0
   -2.5820    0.0250   -1.1030 C   0  0  0  0  0  0  0  0  0  0  0  0
   -3.3410    0.9810   -2.0310 C   0  0  0  0  0  0  0  0  0  0  0  0
   -4.7980    0.8220   -1.7970 C   0  0  0  0  0  0  0  0  0  0  0  0
   -5.3030    0.4660   -0.6300 C   0  0  0  0  0  0  0  0  0  0  0  0
   -6.7570    0.3210   -0.4490 C   0  0  0  0  0  0  0  0  0  0  0  0
   -7.3890   -0.0270    0.6570 C   0  0  0  0  0  0  0  0  0  0  0  0
   -8.8560   -0.0630    0.4430 C   0  0  0  0  0  0  0  0  0  0  0  0
   -8.9760    0.3250   -0.9820 C   0  0  0  0  0  0  0  0  0  0  0  0
   -7.7610    0.5360   -1.4600 C   0  0  0  0  0  0  0  0  0  0  0  0
   -4.4270    0.2340    0.4100 O   0  0  0  0  0  0  0  0  0  0  0  0
   -0.1480   -1.1300    0.3970 C   0  0  0  0  0  0  0  0  0  0  0  0
    1.1800   -0.9540    0.3350 N   0  0  0  0  0  0  0  0  0  0  0  0
    3.9610   -0.6920    0.1040 C   0  0  0  0  0  0  0  0  0  0  0  0
    5.3130   -0.6430   -0.0820 C   0  0  0  0  0  0  0  0  0  0  0  0
    5.9900   -1.4980   -1.0060 N   0  0  0  0  0  0  0  0  0  0  0  0
    7.3980   -1.3810   -1.1370 C   0  0  0  0  0  0  0  0  0  0  0  0
    8.0730   -2.3400   -1.6140 O   0  0  0  0  0  0  0  0  0  0  0  0
  2  1  1  1
  2  3  1  0
  2 30  1  0
  3  4  1  0
  4  5  2  0
  4 28  1  0
  5  6  1  0
  6  7  2  0
  7  8  1  0
  7 27  1  0
  8  9  2  0
  8 26  1  0
  9 10  1  0
 10 11  2  0
 10 12  1  0
 12 13  1  0
 12 25  1  0
 14 13  1  1
 14 15  1  0
 14 24  1  0
 15 16  1  0
 16 17  1  0
 17 18  2  0
 18 19  1  0
 18 24  1  0
 19 20  2  0
 19 23  1  0
 20 21  1  0
 21 22  1  0
 22 23  2  0
 25 26  2  0
 27 28  2  0
 28 29  1  0
 29 30  1  0
 30 31  2  0
M  END
