
     RDKit          3D

 29 31  0  0  0  0  0  0  0  0999 V2000
    8.2960    1.3200    1.9510 C   0  0  0  0  0  0  0  0  0  0  0  0
    8.2310    0.2700    1.0320 O   0  0  0  0  0  0  0  0  0  0  0  0
    7.0490   -0.2970    0.5920 C   0  0  0  0  0  0  0  0  0  0  0  0
    7.1300   -1.3240   -0.3150 C   0  0  0  0  0  0  0  0  0  0  0  0
    5.9880   -1.9220   -0.7840 C   0  0  0  0  0  0  0  0  0  0  0  0
    4.7440   -1.5120   -0.3610 C   0  0  0  0  0  0  0  0  0  0  0  0
    3.6330   -2.1490   -0.8610 O   0  0  0  0  0  0  0  0  0  0  0  0
    2.3220   -1.7810   -0.7080 C   0  0  0  0  0  0  0  0  0  0  0  0
    1.4940   -2.6120    0.0140 C   0  0  0  0  0  0  0  0  0  0  0  0
    0.1700   -2.3350    0.2260 C   0  0  0  0  0  0  0  0  0  0  0  0
   -0.3850   -1.1600   -0.3070 C   0  0  0  0  0  0  0  0  0  0  0  0
   -1.7620   -0.9860   -0.0410 N   0  0  0  0  0  0  0  0  0  0  0  0
   -2.3970    0.2590   -0.1780 C   0  0  0  0  0  0  0  0  0  0  0  0
   -1.7850    1.2700   -0.5330 O   0  0  0  0  0  0  0  0  0  0  0  0
   -3.8340    0.3320    0.1160 C   0  0  0  0  0  0  0  0  0  0  0  0
   -4.5650    1.4940    0.0180 C   0  0  0  0  0  0  0  0  0  0  0  0
   -5.8660    1.1380    0.3770 C   0  0  0  0  0  0  0  0  0  0  0  0
   -7.0380    2.0480    0.4290 C   0  0  0  0  0  0  0  0  0  0  0  0
   -6.5880    3.4570    0.0230 C   0  0  0  0  0  0  0  0  0  0  0  0
   -7.9510    4.5730    0.0710 Cl  0  0  0  0  0  0  0  0  0  0  0  0
   -5.8990   -0.1960    0.6770 C   0  0  0  0  0  0  0  0  0  0  0  0
   -7.0810   -0.9820    1.1050 C   0  0  0  0  0  0  0  0  0  0  0  0
   -4.6440   -0.6600    0.5080 N   0  0  0  0  0  0  0  0  0  0  0  0
    0.4240   -0.3430   -1.0180 C   0  0  0  0  0  0  0  0  0  0  0  0
    1.7680   -0.6400   -1.2260 C   0  0  0  0  0  0  0  0  0  0  0  0
    2.5120    0.2790   -2.0640 C   0  0  0  0  0  0  0  0  0  0  0  0
    3.6970    0.0270   -2.3770 O   0  0  0  0  0  0  0  0  0  0  0  0
    4.6660   -0.4850    0.5450 C   0  0  0  0  0  0  0  0  0  0  0  0
    5.8090    0.1170    1.0180 C   0  0  0  0  0  0  0  0  0  0  0  0
  1  2  1  0
  2  3  1  0
  3  4  2  0
  3 29  1  0
  4  5  1  0
  5  6  2  0
  6  7  1  0
  6 28  1  0
  7  8  1  0
  8  9  2  0
  8 25  1  0
  9 10  1  0
 10 11  2  0
 11 12  1  0
 11 24  1  0
 12 13  1  0
 13 14  2  0
 13 15  1  0
 15 16  2  0
 15 23  1  0
 16 17  1  0
 17 18  1  0
 17 21  2  0
 18 19  1  0
 19 20  1  0
 21 22  1  0
 21 23  1  0
 24 25  2  0
 25 26  1  0
 26 27  2  0
 28 29  2  0
M  END
