
     RDKit          3D

 31 34  0  0  0  0  0  0  0  0999 V2000
   -6.6880   -0.2920   -0.6980 C   0  0  0  0  0  0  0  0  0  0  0  0
   -5.4960    0.2260   -0.8850 C   0  0  0  0  0  0  0  0  0  0  0  0
   -4.7720    0.8290    0.1800 N   0  0  0  0  0  0  0  0  0  0  0  0
   -5.2280    1.8310    1.0740 C   0  0  0  0  0  0  0  0  0  0  0  0
   -4.2590    2.1320    1.9220 C   0  0  0  0  0  0  0  0  0  0  0  0
   -3.0360    1.3140    1.6390 C   0  0  2  0  0  0  0  0  0  0  0  0
   -1.8760    2.2220    1.2910 C   0  0  0  0  0  0  0  0  0  0  0  0
   -3.4110    0.4720    0.4920 C   0  0  0  0  0  0  0  0  0  0  0  0
   -2.7050   -0.3940   -0.1150 N   0  0  0  0  0  0  0  0  0  0  0  0
   -1.3460   -0.6760    0.2800 C   0  0  0  0  0  0  0  0  0  0  0  0
   -1.1530   -1.4640    1.2960 C   0  0  0  0  0  0  0  0  0  0  0  0
   -2.2940   -2.0380    2.0000 C   0  0  0  0  0  0  0  0  0  0  0  0
   -3.4820   -2.5150    1.4440 C   0  0  0  0  0  0  0  0  0  0  0  0
   -4.2710   -2.9610    2.4750 C   0  0  0  0  0  0  0  0  0  0  0  0
   -3.5510   -2.7470    3.6170 C   0  0  0  0  0  0  0  0  0  0  0  0
   -2.4170   -2.2120    3.2900 O   0  0  0  0  0  0  0  0  0  0  0  0
   -0.2480   -0.0840   -0.4840 C   0  0  0  0  0  0  0  0  0  0  0  0
   -0.5250    0.6870   -1.4730 O   0  0  0  0  0  0  0  0  0  0  0  0
    1.1060   -0.3210   -0.1840 N   0  0  0  0  0  0  0  0  0  0  0  0
    2.2280    0.2100   -0.8620 C   0  0  0  0  0  0  0  0  0  0  0  0
    2.1760    1.2360   -1.7500 C   0  0  0  0  0  0  0  0  0  0  0  0
    3.3350    1.6850   -2.3940 C   0  0  0  0  0  0  0  0  0  0  0  0
    4.5700    1.1180   -2.1620 C   0  0  0  0  0  0  0  0  0  0  0  0
    4.6240    0.0700   -1.2560 C   0  0  0  0  0  0  0  0  0  0  0  0
    3.4760   -0.3620   -0.6300 C   0  0  0  0  0  0  0  0  0  0  0  0
    6.0450   -0.3170   -1.2270 C   0  0  0  0  0  0  0  0  0  0  0  0
    6.5080   -1.2440   -0.5150 O   0  0  0  0  0  0  0  0  0  0  0  0
    6.7820    0.5450   -2.1430 C   0  0  0  0  0  0  0  0  0  0  0  0
    8.1450    0.4860   -2.3890 O   0  0  0  0  0  0  0  0  0  0  0  0
    8.9770   -0.5360   -1.9140 C   0  0  0  0  0  0  0  0  0  0  0  0
    5.9190    1.3810   -2.6880 C   0  0  0  0  0  0  0  0  0  0  0  0
  1  2  2  0
  2  3  1  0
  3  4  1  0
  3  8  1  0
  4  5  2  0
  5  6  1  0
  6  7  1  6
  6  8  1  0
  8  9  2  3
  9 10  1  0
 10 11  2  3
 10 17  1  0
 11 12  1  0
 12 13  2  0
 12 16  1  0
 13 14  1  0
 14 15  2  0
 15 16  1  0
 17 18  2  0
 17 19  1  0
 19 20  1  0
 20 21  2  0
 20 25  1  0
 21 22  1  0
 22 23  2  0
 23 24  1  0
 23 31  1  0
 24 25  2  0
 24 26  1  0
 26 27  2  0
 26 28  1  0
 28 29  1  0
 28 31  2  0
 29 30  1  0
M  END
