
     RDKit          3D

 28 30  0  0  0  0  0  0  0  0999 V2000
   -1.8420   -3.8000   -0.2530 C   0  0  0  0  0  0  0  0  0  0  0  0
   -1.6840   -3.0660   -1.5300 C   0  0  0  0  0  0  0  0  0  0  0  0
   -1.4010   -3.7990   -2.5360 O   0  0  0  0  0  0  0  0  0  0  0  0
   -1.8080   -1.6970   -1.7410 N   0  0  0  0  0  0  0  0  0  0  0  0
   -1.5850   -1.2210   -3.1390 C   0  0  0  0  0  0  0  0  0  0  0  0
   -1.0460    0.1900   -3.0580 C   0  0  0  0  0  0  0  0  0  0  0  0
   -0.1640    0.3100   -1.8630 N   0  0  0  0  0  0  0  0  0  0  0  0
    1.1940    0.5200   -2.0430 C   0  0  0  0  0  0  0  0  0  0  0  0
    1.6070    0.5380   -3.2830 O   0  0  0  0  0  0  0  0  0  0  0  0
    2.2100    0.7190   -1.0520 C   0  0  0  0  0  0  0  0  0  0  0  0
    2.0260    0.9510    0.2830 C   0  0  0  0  0  0  0  0  0  0  0  0
    3.0470    1.0860    1.2070 C   0  0  0  0  0  0  0  0  0  0  0  0
    4.3380    0.9860    0.7750 C   0  0  0  0  0  0  0  0  0  0  0  0
    5.6420    1.1520    1.9130 S   0  0  2  0  0  0  0  0  0  0  0  0
    6.0120   -0.4150    2.5390 N   0  0  0  0  0  0  0  0  0  0  0  0
    5.2140    2.0360    3.0490 O   0  0  0  0  0  0  0  0  0  0  0  0
    6.8240    1.7220    1.1810 O   0  0  0  0  0  0  0  0  0  0  0  0
    4.5780    0.7550   -0.5550 C   0  0  0  0  0  0  0  0  0  0  0  0
    3.5670    0.6250   -1.4420 C   0  0  0  0  0  0  0  0  0  0  0  0
   -0.8070    0.1460   -0.5970 C   0  0  0  0  0  0  0  0  0  0  0  0
   -2.1100   -0.6520   -0.8410 C   0  0  2  0  0  0  0  0  0  0  0  0
   -2.7010   -1.0010    0.4730 C   0  0  0  0  0  0  0  0  0  0  0  0
   -2.9270    0.2860    1.2330 C   0  0  0  0  0  0  0  0  0  0  0  0
   -2.0010    0.8150    2.0950 C   0  0  0  0  0  0  0  0  0  0  0  0
   -2.2580    1.9940    2.7640 C   0  0  0  0  0  0  0  0  0  0  0  0
   -3.4390    2.6880    2.6020 C   0  0  0  0  0  0  0  0  0  0  0  0
   -4.3750    2.1640    1.7370 C   0  0  0  0  0  0  0  0  0  0  0  0
   -4.1170    0.9860    1.0700 C   0  0  0  0  0  0  0  0  0  0  0  0
  1  2  1  0
  2  3  2  0
  2  4  1  0
  4  5  1  0
  4 21  1  0
  5  6  1  0
  6  7  1  0
  7  8  1  0
  7 20  1  0
  8  9  2  0
  8 10  1  0
 10 11  2  0
 10 19  1  0
 11 12  1  0
 12 13  2  0
 13 14  1  0
 13 18  1  0
 14 15  1  1
 14 16  2  0
 14 17  2  0
 18 19  2  0
 20 21  1  0
 21 22  1  1
 22 23  1  0
 23 24  2  0
 23 28  1  0
 24 25  1  0
 25 26  2  0
 26 27  1  0
 27 28  2  0
M  END
