
     RDKit          3D

 18 19  0  0  0  0  0  0  0  0999 V2000
    5.8070   -0.7140    0.6180 C   0  0  0  0  0  0  0  0  0  0  0  0
    4.4950   -0.5280    1.1710 O   0  0  0  0  0  0  0  0  0  0  0  0
    3.4540   -0.1660    0.3630 C   0  0  0  0  0  0  0  0  0  0  0  0
    3.6290    0.0090   -0.8770 O   0  0  0  0  0  0  0  0  0  0  0  0
    2.1120    0.0410    0.8290 N   0  0  0  0  0  0  0  0  0  0  0  0
    1.0610    0.4150   -0.0360 C   0  0  0  0  0  0  0  0  0  0  0  0
    0.3580    1.5280    0.0900 C   0  0  0  0  0  0  0  0  0  0  0  0
   -0.6170    1.5380   -0.9880 N   0  0  0  0  0  0  0  0  0  0  0  0
   -0.8070    0.1240   -1.2320 C   0  0  2  0  0  0  0  0  0  0  0  0
   -1.5030   -0.5410   -0.1140 C   0  0  2  0  0  0  0  0  0  0  0  0
   -0.7910   -0.3960    1.0790 O   0  0  0  0  0  0  0  0  0  0  0  0
   -1.4340   -1.9410   -0.3880 O   0  0  0  0  0  0  0  0  0  0  0  0
   -2.9340   -0.2090    0.0040 C   0  0  2  0  0  0  0  0  0  0  0  0
   -3.2910    1.1980    0.2430 C   0  0  0  0  0  0  0  0  0  0  0  0
   -4.3550    1.2050    1.0270 N   0  0  0  0  0  0  0  0  0  0  0  0
   -4.7430   -0.0580    1.3350 O   0  0  0  0  0  0  0  0  0  0  0  0
   -3.5740   -0.8900    1.2320 C   0  0  0  0  0  0  0  0  0  0  0  0
    0.5890   -0.2850   -1.1350 O   0  0  0  0  0  0  0  0  0  0  0  0
  1  2  1  0
  2  3  1  0
  3  4  2  0
  3  5  1  0
  5  6  1  0
  6  7  2  0
  6 18  1  0
  7  8  1  0
  9  8  1  1
  9 10  1  0
  9 18  1  0
 10 11  1  1
 10 12  1  0
 10 13  1  0
 13 14  1  0
 13 17  1  1
 14 15  2  0
 15 16  1  0
 16 17  1  0
M  END
