
     RDKit          3D

 18 19  0  0  0  0  0  0  0  0999 V2000
    1.9770    1.7880    0.6650 C   0  0  0  0  0  0  0  0  0  0  0  0
    1.5900    0.4930    0.1410 N   0  0  0  0  0  0  0  0  0  0  0  0
    2.5140   -0.5880    0.0580 C   0  0  0  0  0  0  0  0  0  0  0  0
    3.6840   -0.4120    0.4790 O   0  0  0  0  0  0  0  0  0  0  0  0
    2.1420   -1.8850   -0.4990 C   0  0  0  0  0  0  0  0  0  0  0  0
    2.9570   -2.8630   -0.5820 O   0  0  0  0  0  0  0  0  0  0  0  0
    0.8030   -1.9980   -0.9510 N   0  0  0  0  0  0  0  0  0  0  0  0
   -0.1760   -1.1590   -0.2980 C   0  0  2  0  0  0  0  0  0  0  0  0
   -0.3100   -1.6910    1.1190 C   0  0  0  0  0  0  0  0  0  0  0  0
   -1.4830   -1.2230   -0.9960 C   0  0  0  0  0  0  0  0  0  0  0  0
   -1.9390   -2.2890   -1.4610 O   0  0  0  0  0  0  0  0  0  0  0  0
   -2.2070   -0.0130   -1.1190 N   0  0  0  0  0  0  0  0  0  0  0  0
   -2.0910    1.0820   -0.1680 C   0  0  2  0  0  0  0  0  0  0  0  0
   -2.3730    2.2730   -0.8340 O   0  0  0  0  0  0  0  0  0  0  0  0
   -0.7370    1.1070    0.4930 C   0  0  1  0  0  0  0  0  0  0  0  0
   -0.8500    0.7250    1.8070 O   0  0  0  0  0  0  0  0  0  0  0  0
    0.2440    0.2950   -0.3030 C   0  0  1  0  0  0  0  0  0  0  0  0
    0.1730    0.7350   -1.6260 O   0  0  0  0  0  0  0  0  0  0  0  0
  1  2  1  0
  2  3  1  0
  2 17  1  0
  3  4  2  0
  3  5  1  0
  5  6  2  0
  5  7  1  0
  7  8  1  0
  8  9  1  1
  8 10  1  0
  8 17  1  0
 10 11  2  0
 10 12  1  0
 12 13  1  0
 13 14  1  6
 13 15  1  0
 15 16  1  1
 15 17  1  0
 17 18  1  6
M  END
