
     RDKit          3D

 17 18  0  0  0  0  0  0  0  0999 V2000
    5.0890   -0.8160    0.0340 C   0  0  0  0  0  0  0  0  0  0  0  0
    3.6050   -0.7700    0.2140 C   0  0  0  0  0  0  0  0  0  0  0  0
    2.7140   -1.7500    0.2090 N   0  0  0  0  0  0  0  0  0  0  0  0
    1.5240   -1.2470    0.4060 O   0  0  0  0  0  0  0  0  0  0  0  0
    1.5920    0.0480    0.5440 C   0  0  0  0  0  0  0  0  0  0  0  0
    0.5070    1.0250    0.7810 C   0  0  1  0  0  0  0  0  0  0  0  0
    0.7480    2.1060   -0.0990 O   0  0  0  0  0  0  0  0  0  0  0  0
   -0.8470    0.4810    0.4130 C   0  0  2  0  0  0  0  0  0  0  0  0
   -1.8660    1.6130    0.5880 C   0  0  2  0  0  0  0  0  0  0  0  0
   -3.1520    1.1140    0.1940 N   0  0  0  0  0  0  0  0  0  0  0  0
   -1.5550    2.6940   -0.2310 O   0  0  0  0  0  0  0  0  0  0  0  0
   -1.3020   -0.6460    1.2810 C   0  0  0  0  0  0  0  0  0  0  0  0
   -0.9980   -1.9040    0.7670 O   0  0  0  0  0  0  0  0  0  0  0  0
   -1.7640   -2.1090   -0.3680 C   0  0  0  0  0  0  0  0  0  0  0  0
   -1.7050   -0.8790   -1.1870 C   0  0  0  0  0  0  0  0  0  0  0  0
   -0.7990    0.0680   -0.8970 O   0  0  0  0  0  0  0  0  0  0  0  0
    2.8900    0.3710    0.4270 N   0  0  0  0  0  0  0  0  0  0  0  0
  1  2  1  0
  2  3  2  0
  2 17  1  0
  3  4  1  0
  4  5  1  0
  5  6  1  0
  5 17  2  0
  6  7  1  6
  6  8  1  0
  8  9  1  0
  8 12  1  1
  8 16  1  0
  9 10  1  6
  9 11  1  0
 12 13  1  0
 13 14  1  0
 14 15  1  0
 15 16  1  0
M  END
