
     RDKit          3D

 18 19  0  0  0  0  0  0  0  0999 V2000
    4.5740   -0.2590    2.2540 N   0  0  0  0  0  0  0  0  0  0  0  0
    3.4010   -0.6970    1.5830 C   0  0  0  0  0  0  0  0  0  0  0  0
    2.8540   -1.7560    1.9740 O   0  0  0  0  0  0  0  0  0  0  0  0
    2.8610    0.0850    0.4660 C   0  0  1  0  0  0  0  0  0  0  0  0
    3.8600    0.2180   -0.6590 C   0  0  0  0  0  0  0  0  0  0  0  0
    4.1540   -1.0590   -1.1370 O   0  0  0  0  0  0  0  0  0  0  0  0
    1.6910   -0.5400   -0.0480 O   0  0  0  0  0  0  0  0  0  0  0  0
    0.4730    0.1130   -0.0620 C   0  0  0  0  0  0  0  0  0  0  0  0
    0.3810    1.2860    0.3870 O   0  0  0  0  0  0  0  0  0  0  0  0
   -0.6830   -0.4980   -0.5670 N   0  0  0  0  0  0  0  0  0  0  0  0
   -1.9560    0.1810   -0.5830 C   0  0  1  0  0  0  0  0  0  0  0  0
   -3.0480   -0.6830   -1.1750 C   0  0  0  0  0  0  0  0  0  0  0  0
   -3.4140   -1.4870    0.0810 C   0  0  0  0  0  0  0  0  0  0  0  0
   -3.3170   -0.6200    1.1350 O   0  0  0  0  0  0  0  0  0  0  0  0
   -2.4980    0.4220    0.8070 C   0  0  2  0  0  0  0  0  0  0  0  0
   -3.2830    1.7210    0.5750 C   0  0  0  0  0  0  0  0  0  0  0  0
   -3.0680    2.0510   -0.7460 O   0  0  0  0  0  0  0  0  0  0  0  0
   -1.9080    1.4980   -1.1350 N   0  0  0  0  0  0  0  0  0  0  0  0
  1  2  1  0
  2  3  2  0
  2  4  1  0
  4  5  1  6
  4  7  1  0
  5  6  1  0
  7  8  1  0
  8  9  2  0
  8 10  1  0
 11 10  1  1
 11 12  1  0
 11 15  1  0
 11 18  1  0
 12 13  1  0
 13 14  1  0
 14 15  1  0
 15 16  1  6
 16 17  1  0
 17 18  1  0
M  END
