
     RDKit          3D

 25 25  0  0  0  0  0  0  0  0999 V2000
    5.8620    2.6200    1.1010 C   0  0  0  0  0  0  0  0  0  0  0  0
    5.4970    1.2240    1.5600 C   0  0  0  0  0  0  0  0  0  0  0  0
    4.2600    0.8850    0.9970 O   0  0  0  0  0  0  0  0  0  0  0  0
    3.9920    0.8200   -0.3600 C   0  0  0  0  0  0  0  0  0  0  0  0
    4.9320    1.0850   -1.1500 O   0  0  0  0  0  0  0  0  0  0  0  0
    2.6660    0.4570   -0.9000 C   0  0  1  0  0  0  0  0  0  0  0  0
    2.6490    0.4590   -2.2920 O   0  0  0  0  0  0  0  0  0  0  0  0
    2.2000   -0.8950   -0.3930 C   0  0  1  0  0  0  0  0  0  0  0  0
    0.8920   -1.1700   -0.8300 O   0  0  0  0  0  0  0  0  0  0  0  0
   -0.1020   -1.3830    0.1080 C   0  0  0  0  0  0  0  0  0  0  0  0
    0.2160   -1.3190    1.3240 O   0  0  0  0  0  0  0  0  0  0  0  0
   -1.4950   -1.6760   -0.2790 C   0  0  0  0  0  0  0  0  0  0  0  0
   -2.3560   -0.4340   -0.3100 C   0  0  1  0  0  0  0  0  0  0  0  0
   -3.6300   -0.8550   -0.6870 O   0  0  0  0  0  0  0  0  0  0  0  0
   -4.6350    0.0400   -0.3940 C   0  0  1  0  0  0  0  0  0  0  0  0
   -4.3980    1.3850   -1.0110 C   0  0  0  0  0  0  0  0  0  0  0  0
   -5.9180   -0.5490   -0.9880 C   0  0  0  0  0  0  0  0  0  0  0  0
   -6.0920   -1.7950   -0.3530 O   0  0  0  0  0  0  0  0  0  0  0  0
   -4.8220    0.1210    1.1210 C   0  0  0  0  0  0  0  0  0  0  0  0
   -3.5560    0.1130    1.7690 O   0  0  0  0  0  0  0  0  0  0  0  0
   -2.3770    0.1880    1.0300 C   0  0  0  0  0  0  0  0  0  0  0  0
   -1.3640    0.7620    1.4800 O   0  0  0  0  0  0  0  0  0  0  0  0
    3.0920   -1.9860   -0.8170 C   0  0  0  0  0  0  0  0  0  0  0  0
    4.4830   -2.0190   -0.5350 N   0  0  0  0  0  0  0  0  0  0  0  0
    2.6100   -2.9470   -1.4630 O   0  0  0  0  0  0  0  0  0  0  0  0
  1  2  1  0
  2  3  1  0
  3  4  1  0
  4  5  2  0
  4  6  1  0
  6  7  1  6
  6  8  1  0
  8  9  1  6
  8 23  1  0
  9 10  1  0
 10 11  2  0
 10 12  1  0
 13 12  1  1
 13 14  1  0
 13 21  1  0
 14 15  1  0
 15 16  1  6
 15 17  1  0
 15 19  1  0
 17 18  1  0
 19 20  1  0
 20 21  1  0
 21 22  2  0
 23 24  1  0
 23 25  2  0
M  END
