
     RDKit          3D

 23 25  0  0  0  0  0  0  0  0999 V2000
   -3.7530    0.6150    2.4920 C   0  0  0  0  0  0  0  0  0  0  0  0
   -2.9520    0.3300    1.2530 C   0  0  0  0  0  0  0  0  0  0  0  0
   -1.7900   -0.3760    1.2420 C   0  0  0  0  0  0  0  0  0  0  0  0
   -1.0960   -0.6790    2.5290 C   0  0  0  0  0  0  0  0  0  0  0  0
   -1.1440   -0.7290    0.0830 C   0  0  0  0  0  0  0  0  0  0  0  0
    0.0080   -1.4230    0.0960 O   0  0  0  0  0  0  0  0  0  0  0  0
    1.2990   -1.1680    0.0130 C   0  0  0  0  0  0  0  0  0  0  0  0
    2.1350   -2.2770    0.0920 C   0  0  0  0  0  0  0  0  0  0  0  0
    3.4970   -2.2620    0.0190 C   0  0  0  0  0  0  0  0  0  0  0  0
    4.1330   -1.0480   -0.1430 C   0  0  0  0  0  0  0  0  0  0  0  0
    5.4260   -0.7350   -0.2350 N   0  0  0  0  0  0  0  0  0  0  0  0
    5.4960    0.5870   -0.3770 C   0  0  0  0  0  0  0  0  0  0  0  0
    6.7150    1.2890   -0.4910 N   0  0  0  0  0  0  0  0  0  0  0  0
    4.2560    1.1010   -0.3730 N   0  0  0  0  0  0  0  0  0  0  0  0
    3.3590    0.1160   -0.2290 C   0  0  0  0  0  0  0  0  0  0  0  0
    1.9820    0.0270   -0.1460 C   0  0  0  0  0  0  0  0  0  0  0  0
   -1.7540   -0.3200   -1.1030 C   0  0  0  0  0  0  0  0  0  0  0  0
   -1.1350   -0.6890   -2.4310 C   0  0  0  0  0  0  0  0  0  0  0  0
   -2.9250    0.4020   -1.1080 C   0  0  0  0  0  0  0  0  0  0  0  0
   -3.4910    0.7750   -2.4350 C   0  0  0  0  0  0  0  0  0  0  0  0
   -3.2500    2.1730   -2.6380 O   0  0  0  0  0  0  0  0  0  0  0  0
   -3.5330    0.7310    0.0720 C   0  0  0  0  0  0  0  0  0  0  0  0
   -4.7900    1.4260    0.0830 N   0  0  0  0  0  0  0  0  0  0  0  0
  1  2  1  0
  2  3  2  0
  2 22  1  0
  3  4  1  0
  3  5  1  0
  5  6  1  0
  5 17  2  0
  6  7  1  0
  7  8  2  0
  7 16  1  0
  8  9  1  0
  9 10  2  0
 10 11  1  0
 10 15  1  0
 11 12  1  0
 12 13  1  0
 12 14  2  0
 14 15  1  0
 15 16  2  0
 17 18  1  0
 17 19  1  0
 19 20  1  0
 19 22  2  0
 20 21  1  0
 22 23  1  0
M  CHG  1  14   1
M  END
