
     RDKit          3D

 24 24  0  0  0  0  0  0  0  0999 V2000
   -6.1820   -0.6730   -2.3820 C   0  0  0  0  0  0  0  0  0  0  0  0
   -5.5780   -0.1100   -1.1340 C   0  0  0  0  0  0  0  0  0  0  0  0
   -6.3040    0.6350   -0.4470 O   0  0  0  0  0  0  0  0  0  0  0  0
   -4.3060   -0.3670   -0.7240 O   0  0  0  0  0  0  0  0  0  0  0  0
   -3.6750    0.1310    0.4340 C   0  0  1  0  0  0  0  0  0  0  0  0
   -4.4130   -0.2570    1.6970 C   0  0  0  0  0  0  0  0  0  0  0  0
   -2.3120   -0.5030    0.5790 C   0  0  0  0  0  0  0  0  0  0  0  0
   -1.6430   -0.1430    1.5740 O   0  0  0  0  0  0  0  0  0  0  0  0
   -1.7920   -1.4160   -0.2900 O   0  0  0  0  0  0  0  0  0  0  0  0
   -0.5190   -1.9480   -0.0730 C   0  0  0  0  0  0  0  0  0  0  0  0
    0.5450   -0.9150   -0.0640 C   0  0  0  0  0  0  0  0  0  0  0  0
    0.1980    0.2760   -0.2510 O   0  0  0  0  0  0  0  0  0  0  0  0
    1.8690   -1.1610    0.1330 O   0  0  0  0  0  0  0  0  0  0  0  0
    2.8960   -0.2110    0.1470 C   0  0  1  0  0  0  0  0  0  0  0  0
    3.5310   -0.0780    1.5350 C   0  0  0  0  0  0  0  0  0  0  0  0
    4.6740    0.9150    1.3680 C   0  0  0  0  0  0  0  0  0  0  0  0
    5.8480    0.2630    0.6540 C   0  0  2  0  0  0  0  0  0  0  0  0
    6.5770    1.1750   -0.0830 O   0  0  0  0  0  0  0  0  0  0  0  0
    5.2970   -0.8680   -0.1740 C   0  0  0  0  0  0  0  0  0  0  0  0
    3.9830   -0.4300   -0.8350 C   0  0  2  0  0  0  0  0  0  0  0  0
    4.3040    0.8080   -1.4450 O   0  0  0  0  0  0  0  0  0  0  0  0
   -3.4170    1.6110    0.3620 C   0  0  2  0  0  0  0  0  0  0  0  0
   -4.5250    2.4000    0.2190 O   0  0  0  0  0  0  0  0  0  0  0  0
   -2.4580    1.8280   -0.6270 O   0  0  0  0  0  0  0  0  0  0  0  0
  1  2  1  0
  2  3  2  0
  2  4  1  0
  4  5  1  0
  5  6  1  1
  5  7  1  0
  5 22  1  0
  7  8  2  0
  7  9  1  0
  9 10  1  0
 10 11  1  0
 11 12  2  0
 11 13  1  0
 14 13  1  1
 14 15  1  0
 14 20  1  0
 15 16  1  0
 16 17  1  0
 17 18  1  6
 17 19  1  0
 19 20  1  0
 20 21  1  1
 22 23  1  6
 22 24  1  0
M  END
