
     RDKit          3D

 25 25  0  0  0  0  0  0  0  0999 V2000
   -6.7600    0.5770    1.4560 C   0  0  0  0  0  0  0  0  0  0  0  0
   -6.7060   -0.3430    0.5210 O   0  0  0  0  0  0  0  0  0  0  0  0
   -5.7210   -1.0160   -0.0030 C   0  0  0  0  0  0  0  0  0  0  0  0
   -4.5210   -0.3860   -0.6410 C   0  0  2  0  0  0  0  0  0  0  0  0
   -4.9270    0.6420   -1.6270 C   0  0  0  0  0  0  0  0  0  0  0  0
   -3.8160   -1.4740   -1.2830 O   0  0  0  0  0  0  0  0  0  0  0  0
   -3.5450    0.1680    0.3780 C   0  0  2  0  0  0  0  0  0  0  0  0
   -4.0130    1.1770    1.1530 O   0  0  0  0  0  0  0  0  0  0  0  0
   -2.3240    0.6190   -0.2820 N   0  0  0  0  0  0  0  0  0  0  0  0
   -1.0840   -0.0030   -0.0050 C   0  0  0  0  0  0  0  0  0  0  0  0
   -1.0130   -0.9520    0.8100 O   0  0  0  0  0  0  0  0  0  0  0  0
    0.1480    0.4630   -0.6800 C   0  0  1  0  0  0  0  0  0  0  0  0
    0.5460    1.8640   -0.2180 C   0  0  0  0  0  0  0  0  0  0  0  0
    1.9850    1.8900   -0.7440 C   0  0  0  0  0  0  0  0  0  0  0  0
    2.3760    0.4430   -0.5930 C   0  0  1  0  0  0  0  0  0  0  0  0
    2.9030   -0.0820   -1.7730 O   0  0  0  0  0  0  0  0  0  0  0  0
    3.4250    0.3760    0.4630 C   0  0  0  0  0  0  0  0  0  0  0  0
    3.1820    0.7950    1.6250 O   0  0  0  0  0  0  0  0  0  0  0  0
    4.6890   -0.1380    0.2250 O   0  0  0  0  0  0  0  0  0  0  0  0
    5.7030   -0.2150    1.2040 C   0  0  0  0  0  0  0  0  0  0  0  0
    6.8970   -0.8120    0.5910 C   0  0  0  0  0  0  0  0  0  0  0  0
    6.8930   -1.1530   -0.6040 O   0  0  0  0  0  0  0  0  0  0  0  0
    8.0330   -0.9950    1.3460 O   0  0  0  0  0  0  0  0  0  0  0  0
    9.2140   -1.5660    0.8100 C   0  0  0  0  0  0  0  0  0  0  0  0
    1.2520   -0.2740   -0.2750 O   0  0  0  0  0  0  0  0  0  0  0  0
  1  2  1  0
  2  3  1  0
  3  4  1  0
  4  5  1  6
  4  6  1  0
  4  7  1  0
  7  8  1  6
  7  9  1  0
  9 10  1  0
 10 11  2  0
 12 10  1  1
 12 13  1  0
 12 25  1  0
 13 14  1  0
 14 15  1  0
 15 16  1  6
 15 17  1  0
 15 25  1  0
 17 18  2  0
 17 19  1  0
 19 20  1  0
 20 21  1  0
 21 22  2  0
 21 23  1  0
 23 24  1  0
M  END
