
     RDKit          3D

 24 25  0  0  0  0  0  0  0  0999 V2000
    5.9690    1.2930    2.8340 C   0  0  0  0  0  0  0  0  0  0  0  0
    5.0210    0.4540    2.0410 C   0  0  0  0  0  0  0  0  0  0  0  0
    3.8700    0.2910    2.5190 O   0  0  0  0  0  0  0  0  0  0  0  0
    5.4090   -0.1100    0.8360 O   0  0  0  0  0  0  0  0  0  0  0  0
    4.4920   -0.8870    0.1260 C   0  0  0  0  0  0  0  0  0  0  0  0
    3.2980   -0.0680   -0.2180 C   0  0  0  0  0  0  0  0  0  0  0  0
    3.2000    1.0930    0.0990 O   0  0  0  0  0  0  0  0  0  0  0  0
    2.2000   -0.7400   -0.9840 C   0  0  1  0  0  0  0  0  0  0  0  0
    2.4920   -2.0540   -1.2510 O   0  0  0  0  0  0  0  0  0  0  0  0
    1.3970   -2.7970   -1.0810 N   0  0  0  0  0  0  0  0  0  0  0  0
    0.4060   -1.9380   -0.3970 C   0  0  2  0  0  0  0  0  0  0  0  0
   -0.7860   -1.8230   -1.2900 C   0  0  1  0  0  0  0  0  0  0  0  0
   -1.3890   -3.0940   -1.4890 O   0  0  0  0  0  0  0  0  0  0  0  0
   -1.6870   -0.7000   -1.2280 C   0  0  0  0  0  0  0  0  0  0  0  0
   -2.4970   -0.2630   -0.1070 C   0  0  1  0  0  0  0  0  0  0  0  0
   -1.9450    0.1680    1.1710 C   0  0  0  0  0  0  0  0  0  0  0  0
   -1.2070   -0.7610    1.8740 O   0  0  0  0  0  0  0  0  0  0  0  0
   -3.4000    0.8700   -0.6590 C   0  0  1  0  0  0  0  0  0  0  0  0
   -4.1720    0.3710   -1.7110 O   0  0  0  0  0  0  0  0  0  0  0  0
   -4.3280    1.4380    0.3430 C   0  0  0  0  0  0  0  0  0  0  0  0
   -3.7060    2.8000    0.6370 C   0  0  0  0  0  0  0  0  0  0  0  0
   -3.1650    3.1790   -0.5860 O   0  0  0  0  0  0  0  0  0  0  0  0
   -2.6090    2.0270   -1.1410 C   0  0  0  0  0  0  0  0  0  0  0  0
    1.0940   -0.7660   -0.1730 O   0  0  0  0  0  0  0  0  0  0  0  0
  1  2  1  0
  2  3  2  0
  2  4  1  0
  4  5  1  0
  5  6  1  0
  6  7  2  0
  8  6  1  1
  8  9  1  0
  8 24  1  0
  9 10  1  0
 11 10  1  6
 11 12  1  0
 11 24  1  0
 12 13  1  1
 12 14  1  0
 15 14  1  6
 15 16  1  0
 15 18  1  0
 16 17  1  0
 18 19  1  6
 18 20  1  0
 18 23  1  0
 20 21  1  0
 21 22  1  0
 22 23  1  0
M  END
