
     RDKit          3D

 23 25  0  0  0  0  0  0  0  0999 V2000
   -4.2890   -2.3810    2.3560 C   0  0  0  0  0  0  0  0  0  0  0  0
   -3.6720   -1.2560    1.5800 C   0  0  0  0  0  0  0  0  0  0  0  0
   -2.2880   -1.5200    1.3140 N   0  0  0  0  0  0  0  0  0  0  0  0
   -1.4730   -0.6180    0.5990 C   0  0  0  0  0  0  0  0  0  0  0  0
   -0.1270   -0.9060    0.3570 C   0  0  0  0  0  0  0  0  0  0  0  0
    0.7100   -0.0640   -0.3330 C   0  0  0  0  0  0  0  0  0  0  0  0
    2.0740   -0.3350   -0.5900 N   0  0  0  0  0  0  0  0  0  0  0  0
    2.8020   -1.4870   -0.1950 C   0  0  0  0  0  0  0  0  0  0  0  0
    2.2280   -2.3650    0.4370 O   0  0  0  0  0  0  0  0  0  0  0  0
    4.1730   -1.6270   -0.5220 N   0  0  0  0  0  0  0  0  0  0  0  0
    4.9710   -2.7560   -0.1490 C   0  0  0  0  0  0  0  0  0  0  0  0
    5.1540   -2.9990    1.3050 C   0  0  0  0  0  0  0  0  0  0  0  0
    3.9930   -3.2210    2.0070 O   0  0  0  0  0  0  0  0  0  0  0  0
    0.1340    1.1320   -0.7970 C   0  0  0  0  0  0  0  0  0  0  0  0
    0.8600    2.0400   -1.4890 C   0  0  0  0  0  0  0  0  0  0  0  0
    0.2630    3.2210   -1.9380 C   0  0  0  0  0  0  0  0  0  0  0  0
   -1.0730    3.5160   -1.7020 C   0  0  0  0  0  0  0  0  0  0  0  0
   -1.7960    2.5960   -1.0050 C   0  0  0  0  0  0  0  0  0  0  0  0
   -1.1980    1.4120   -0.5540 C   0  0  0  0  0  0  0  0  0  0  0  0
   -2.0210    0.5440    0.1460 C   0  0  0  0  0  0  0  0  0  0  0  0
   -3.1570    3.1140   -0.8800 C   0  0  0  0  0  0  0  0  0  0  0  0
   -3.1620    4.2810   -1.4950 C   0  0  0  0  0  0  0  0  0  0  0  0
   -1.9010    4.6060   -2.0360 N   0  0  0  0  0  0  0  0  0  0  0  0
  1  2  1  0
  2  3  1  0
  3  4  1  0
  4  5  2  0
  4 20  1  0
  5  6  1  0
  6  7  1  0
  6 14  2  0
  7  8  1  0
  8  9  2  0
  8 10  1  0
 10 11  1  0
 11 12  1  0
 12 13  1  0
 14 15  1  0
 14 19  1  0
 15 16  2  0
 16 17  1  0
 17 18  2  0
 17 23  1  0
 18 19  1  0
 18 21  1  0
 19 20  2  0
 21 22  2  0
 22 23  1  0
M  CHG  1  23   1
M  END
