
     RDKit          3D

 19 20  0  0  0  0  0  0  0  0999 V2000
   -0.2350    0.1440    0.5450 O   0  0  0  0  0  0  0  0  0  0  0  0
    0.0360   -0.7570   -0.1440 C   0  0  0  0  0  0  0  0  0  0  0  0
   -0.7470   -1.7720   -0.7700 C   0  0  0  0  0  0  0  0  0  0  0  0
   -2.1530   -1.4300   -1.1480 C   0  0  2  0  0  0  0  0  0  0  0  0
   -2.2610   -0.4050   -2.1360 N   0  0  0  0  0  0  0  0  0  0  0  0
   -3.2070    0.5050   -1.7440 N   0  0  0  0  0  0  0  0  0  0  0  0
   -3.6310    0.2180   -0.5430 C   0  0  0  0  0  0  0  0  0  0  0  0
   -4.5770    0.7220    0.4710 C   0  0  0  0  0  0  0  0  0  0  0  0
   -4.3080   -0.1890    1.6390 C   0  0  0  0  0  0  0  0  0  0  0  0
   -4.9520   -0.0500    2.8920 O   0  0  0  0  0  0  0  0  0  0  0  0
   -3.4140   -1.0850    1.2910 C   0  0  0  0  0  0  0  0  0  0  0  0
   -2.9590   -0.9220   -0.0460 N   0  0  0  0  0  0  0  0  0  0  0  0
    1.7270   -0.8970   -0.4810 N   0  0  0  0  0  0  0  0  0  0  0  0
    2.1650    0.1350    0.4520 C   0  0  0  0  0  0  0  0  0  0  0  0
    1.6420    0.7630    1.2920 O   0  0  0  0  0  0  0  0  0  0  0  0
    3.6100    0.3750    0.1950 N   0  0  0  0  0  0  0  0  0  0  0  0
    4.3520    1.3290    0.9260 C   0  0  0  0  0  0  0  0  0  0  0  0
    5.7880    1.3860    0.3850 C   0  0  0  0  0  0  0  0  0  0  0  0
    5.7610    1.7550   -0.9770 O   0  0  0  0  0  0  0  0  0  0  0  0
  1  2  2  0
  2  3  1  0
  2 13  1  0
  4  3  1  1
  4  5  1  0
  4 12  1  0
  5  6  1  0
  6  7  2  0
  7  8  1  0
  7 12  1  0
  8  9  1  0
  9 10  1  0
  9 11  2  0
 11 12  1  0
 13 14  1  0
 14 15  2  0
 14 16  1  0
 16 17  1  0
 17 18  1  0
 18 19  1  0
M  END
