
     RDKit          3D

 19 20  0  0  0  0  0  0  0  0999 V2000
    5.2100   -1.5380    0.3790 N   0  0  0  0  0  0  0  0  0  0  0  0
    4.8970   -0.2130    0.0100 C   0  0  0  0  0  0  0  0  0  0  0  0
    5.6700    0.4630   -0.7180 O   0  0  0  0  0  0  0  0  0  0  0  0
    3.6300    0.3780    0.4960 C   0  0  2  0  0  0  0  0  0  0  0  0
    2.4110   -0.3100   -0.0890 C   0  0  0  0  0  0  0  0  0  0  0  0
    1.3390    0.7450    0.1940 C   0  0  2  0  0  0  0  0  0  0  0  0
    0.1500    0.5330   -0.5710 N   0  0  0  0  0  0  0  0  0  0  0  0
   -1.1110    0.3060    0.0370 C   0  0  0  0  0  0  0  0  0  0  0  0
   -1.1630    0.2950    1.2910 O   0  0  0  0  0  0  0  0  0  0  0  0
   -2.3020    0.0930   -0.6810 N   0  0  0  0  0  0  0  0  0  0  0  0
   -3.5610   -0.1330   -0.0580 C   0  0  0  0  0  0  0  0  0  0  0  0
   -4.2760   -1.2320   -0.2350 C   0  0  0  0  0  0  0  0  0  0  0  0
   -5.5810   -1.4910    0.3990 C   0  0  0  0  0  0  0  0  0  0  0  0
   -5.9800   -0.4160    1.2250 O   0  0  0  0  0  0  0  0  0  0  0  0
   -5.2630    0.7190    1.4200 N   0  0  0  0  0  0  0  0  0  0  0  0
   -4.1240    0.8780    0.8310 C   0  0  0  0  0  0  0  0  0  0  0  0
    2.0680    1.9860   -0.1940 C   0  0  0  0  0  0  0  0  0  0  0  0
    1.5060    3.0130   -0.6280 O   0  0  0  0  0  0  0  0  0  0  0  0
    3.4550    1.7390    0.0320 N   0  0  0  0  0  0  0  0  0  0  0  0
  1  2  1  0
  2  3  2  0
  4  2  1  6
  4  5  1  0
  4 19  1  0
  5  6  1  0
  6  7  1  6
  6 17  1  0
  7  8  1  0
  8  9  2  0
  8 10  1  0
 10 11  1  0
 11 12  2  0
 11 16  1  0
 12 13  1  0
 13 14  1  0
 14 15  1  0
 15 16  2  0
 17 18  2  0
 17 19  1  0
M  END
