
     RDKit          3D

 19 20  0  0  0  0  0  0  0  0999 V2000
    6.2690   -0.3890    0.1410 N   0  0  0  0  0  0  0  0  0  0  0  0
    5.0780   -0.9150    0.7370 C   0  0  0  0  0  0  0  0  0  0  0  0
    3.8880   -0.3100    0.0440 C   0  0  0  0  0  0  0  0  0  0  0  0
    2.6670   -0.6740    0.4540 N   0  0  0  0  0  0  0  0  0  0  0  0
    1.5620   -0.1590   -0.1360 C   0  0  0  0  0  0  0  0  0  0  0  0
    0.2870   -0.5790    0.3060 N   0  0  0  0  0  0  0  0  0  0  0  0
   -0.9550   -0.1140   -0.2080 C   0  0  1  0  0  0  0  0  0  0  0  0
   -2.0960   -1.0280    0.2940 C   0  0  0  0  0  0  0  0  0  0  0  0
   -3.3710   -0.2270    0.1150 C   0  0  2  0  0  0  0  0  0  0  0  0
   -4.5490   -1.1440   -0.1590 C   0  0  0  0  0  0  0  0  0  0  0  0
   -5.6680   -0.3310   -0.3080 O   0  0  0  0  0  0  0  0  0  0  0  0
   -3.1520    0.7440   -1.0140 C   0  0  0  0  0  0  0  0  0  0  0  0
   -2.2890    1.7550   -0.5600 O   0  0  0  0  0  0  0  0  0  0  0  0
   -1.3490    1.2510    0.3320 C   0  0  2  0  0  0  0  0  0  0  0  0
   -0.3290    2.1350    0.4890 O   0  0  0  0  0  0  0  0  0  0  0  0
    1.7710    0.7190   -1.1380 N   0  0  0  0  0  0  0  0  0  0  0  0
    2.9900    1.0950   -1.5610 C   0  0  0  0  0  0  0  0  0  0  0  0
    3.1490    1.9160   -2.4960 O   0  0  0  0  0  0  0  0  0  0  0  0
    4.0660    0.5720   -0.9600 N   0  0  0  0  0  0  0  0  0  0  0  0
  1  2  1  0
  2  3  1  0
  3  4  1  0
  3 19  2  0
  4  5  2  0
  5  6  1  0
  5 16  1  0
  7  6  1  1
  7  8  1  0
  7 14  1  0
  8  9  1  0
  9 10  1  6
  9 12  1  0
 10 11  1  0
 12 13  1  0
 13 14  1  0
 14 15  1  6
 16 17  1  0
 17 18  2  0
 17 19  1  0
M  END
