
     RDKit          3D

 25 28  0  0  0  0  0  0  0  0999 V2000
    6.8550    0.2500    0.3750 C   0  0  0  0  0  0  0  0  0  0  0  0
    5.4400   -0.1370    0.1790 C   0  0  0  0  0  0  0  0  0  0  0  0
    4.5930    0.6780   -0.5380 C   0  0  0  0  0  0  0  0  0  0  0  0
    3.2560    0.3490   -0.7440 C   0  0  0  0  0  0  0  0  0  0  0  0
    2.8090   -0.8310   -0.2010 C   0  0  0  0  0  0  0  0  0  0  0  0
    3.6760   -1.6570    0.5270 C   0  0  0  0  0  0  0  0  0  0  0  0
    4.9990   -1.3210    0.7260 C   0  0  0  0  0  0  0  0  0  0  0  0
    6.0460   -2.3830    1.6430 Cl  0  0  0  0  0  0  0  0  0  0  0  0
    1.3870   -1.2320   -0.3920 C   0  0  0  0  0  0  0  0  0  0  0  0
    0.5330   -0.1550   -0.9670 C   0  0  1  0  0  0  0  0  0  0  0  0
    0.1090    0.8170    0.0210 N   0  0  0  0  0  0  0  0  0  0  0  0
   -1.1270    1.3960   -0.4020 C   0  0  0  0  0  0  0  0  0  0  0  0
   -2.3390    0.6770    0.0070 C   0  0  0  0  0  0  0  0  0  0  0  0
   -2.2620   -0.5140    0.6710 C   0  0  0  0  0  0  0  0  0  0  0  0
   -3.4000   -1.2120    1.0680 C   0  0  0  0  0  0  0  0  0  0  0  0
   -4.6120   -0.6500    0.7640 C   0  0  0  0  0  0  0  0  0  0  0  0
   -5.7850   -1.2870    1.1280 C   0  0  0  0  0  0  0  0  0  0  0  0
   -6.9410   -0.7050    0.8120 N   0  0  0  0  0  0  0  0  0  0  0  0
   -7.0510    0.4570    0.1650 C   0  0  0  0  0  0  0  0  0  0  0  0
   -8.1760    0.9430   -0.0980 O   0  0  0  0  0  0  0  0  0  0  0  0
   -5.9250    1.1080   -0.2070 N   0  0  0  0  0  0  0  0  0  0  0  0
   -4.7490    0.5600    0.0900 C   0  0  0  0  0  0  0  0  0  0  0  0
   -3.5710    1.2070   -0.2800 C   0  0  0  0  0  0  0  0  0  0  0  0
    1.2510    0.6130   -2.0690 C   0  0  0  0  0  0  0  0  0  0  0  0
    2.4040    1.1680   -1.4650 O   0  0  0  0  0  0  0  0  0  0  0  0
  1  2  1  0
  2  3  2  0
  2  7  1  0
  3  4  1  0
  4  5  2  0
  4 25  1  0
  5  6  1  0
  5  9  1  0
  6  7  2  0
  7  8  1  0
  9 10  1  0
 10 11  1  1
 10 24  1  0
 11 12  1  0
 12 13  1  0
 13 14  2  0
 13 23  1  0
 14 15  1  0
 15 16  2  0
 16 17  1  0
 16 22  1  0
 17 18  2  0
 18 19  1  0
 19 20  2  0
 19 21  1  0
 21 22  1  0
 22 23  2  0
 24 25  1  0
M  CHG  1  11   1
M  END
