
     RDKit          3D

 25 28  0  0  0  0  0  0  0  0999 V2000
   -4.4490    0.6170    1.7020 C   0  0  0  0  0  0  0  0  0  0  0  0
   -3.9460   -0.3100    0.9170 C   0  0  0  0  0  0  0  0  0  0  0  0
   -3.4220   -1.6170    1.4220 C   0  0  0  0  0  0  0  0  0  0  0  0
   -2.1990   -1.9980    0.7280 C   0  0  0  0  0  0  0  0  0  0  0  0
   -1.5030   -1.0720   -0.2240 C   0  0  2  0  0  0  0  0  0  0  0  0
   -0.5760   -0.1400    0.4690 C   0  0  0  0  0  0  0  0  0  0  0  0
   -0.8140    0.8240    1.3490 N   0  0  0  0  0  0  0  0  0  0  0  0
    0.3120    1.5030    1.6130 N   0  0  0  0  0  0  0  0  0  0  0  0
    1.3130    1.0050    0.9200 C   0  0  0  0  0  0  0  0  0  0  0  0
    0.8140   -0.0230    0.1850 C   0  0  0  0  0  0  0  0  0  0  0  0
    1.8890   -0.7090   -0.5830 C   0  0  0  0  0  0  0  0  0  0  0  0
    3.0320    0.1490   -0.4010 N   0  0  2  0  0  0  0  0  0  0  0  0
    4.2200   -0.6840   -0.0930 C   0  0  0  0  0  0  0  0  0  0  0  0
    5.3850    0.2000    0.1340 C   0  0  0  0  0  0  0  0  0  0  0  0
    6.6030    0.2130   -0.5030 C   0  0  0  0  0  0  0  0  0  0  0  0
    7.3290    1.2290    0.0790 C   0  0  0  0  0  0  0  0  0  0  0  0
    6.5160    1.7880    1.0470 C   0  0  0  0  0  0  0  0  0  0  0  0
    5.3970    1.1570    1.0410 O   0  0  0  0  0  0  0  0  0  0  0  0
    2.8070    1.0690    0.6680 C   0  0  0  0  0  0  0  0  0  0  0  0
   -2.4990   -0.3820   -1.1360 C   0  0  2  0  0  0  0  0  0  0  0  0
   -1.9730    0.5800   -1.9280 O   0  0  0  0  0  0  0  0  0  0  0  0
   -3.8190   -0.0520   -0.4930 C   0  0  0  0  0  0  0  0  0  0  0  0
   -4.8280    0.3340   -1.2420 C   0  0  0  0  0  0  0  0  0  0  0  0
   -6.2330    0.5580   -0.9070 C   0  0  0  0  0  0  0  0  0  0  0  0
   -6.8380   -0.0300    0.6310 Cl  0  0  0  0  0  0  0  0  0  0  0  0
  1  2  2  0
  2  3  1  0
  2 22  1  0
  3  4  1  0
  4  5  1  0
  5  6  1  1
  5 20  1  0
  6  7  1  0
  6 10  2  0
  7  8  1  0
  8  9  2  0
  9 10  1  0
  9 19  1  0
 10 11  1  0
 11 12  1  0
 12 13  1  1
 12 19  1  0
 13 14  1  0
 14 15  2  0
 14 18  1  0
 15 16  1  0
 16 17  2  0
 17 18  1  0
 20 21  1  1
 20 22  1  0
 22 23  2  3
 23 24  1  0
 24 25  1  0
M  CHG  1  12   1
M  END
