
     RDKit          3D

 25 27  0  0  0  0  0  0  0  0999 V2000
    0.4570    3.0670    2.7330 C   0  0  0  0  0  0  0  0  0  0  0  0
    0.3090    2.0310    1.9330 C   0  0  0  0  0  0  0  0  0  0  0  0
    0.0210    2.1530    0.5790 N   0  0  0  0  0  0  0  0  0  0  0  0
   -0.1130    0.9240    0.0150 C   0  0  0  0  0  0  0  0  0  0  0  0
   -0.3630    0.6370   -1.2880 C   0  0  0  0  0  0  0  0  0  0  0  0
   -0.4830    1.9110   -2.0420 C   0  0  0  0  0  0  0  0  0  0  0  0
   -0.9860    2.8800   -1.4580 O   0  0  0  0  0  0  0  0  0  0  0  0
   -0.0120    1.9450   -3.4020 C   0  0  0  0  0  0  0  0  0  0  0  0
   -0.2090    2.9860   -4.1390 C   0  0  0  0  0  0  0  0  0  0  0  0
    0.6590    0.7070   -3.8640 C   0  0  1  0  0  0  0  0  0  0  0  0
    1.9580    0.5470   -3.1320 C   0  0  0  0  0  0  0  0  0  0  0  0
   -0.2040   -0.4800   -3.4630 C   0  0  0  0  0  0  0  0  0  0  0  0
   -0.4880   -0.6050   -2.0040 C   0  0  1  0  0  0  0  0  0  0  0  0
    0.2650   -1.7430   -1.5070 N   0  0  0  0  0  0  0  0  0  0  0  0
    0.4300   -2.2490   -0.2020 C   0  0  0  0  0  0  0  0  0  0  0  0
    0.9690   -3.3390    0.0570 O   0  0  0  0  0  0  0  0  0  0  0  0
   -0.0510   -1.4620    0.9770 C   0  0  0  0  0  0  0  0  0  0  0  0
   -0.6740   -2.0470    1.9420 C   0  0  0  0  0  0  0  0  0  0  0  0
   -1.0220   -3.4830    2.1110 C   0  0  0  0  0  0  0  0  0  0  0  0
   -2.5300   -3.6750    2.0900 C   0  0  0  0  0  0  0  0  0  0  0  0
   -3.1620   -3.1220    0.4860 Cl  0  0  0  0  0  0  0  0  0  0  0  0
    0.0970   -0.0470    1.0610 N   0  0  0  0  0  0  0  0  0  0  0  0
    0.3890    0.6520    2.2760 C   0  0  0  0  0  0  0  0  0  0  0  0
    0.7570    0.0130    3.4050 C   0  0  0  0  0  0  0  0  0  0  0  0
    1.1870    0.7340    4.6170 C   0  0  0  0  0  0  0  0  0  0  0  0
  1  2  2  0
  2  3  1  0
  2 23  1  0
  3  4  1  0
  4  5  2  0
  4 22  1  0
  5  6  1  0
  5 13  1  0
  6  7  2  0
  6  8  1  0
  8  9  2  0
  8 10  1  0
 10 11  1  1
 10 12  1  0
 13 12  1  6
 13 14  1  0
 14 15  1  0
 15 16  2  0
 15 17  1  0
 17 18  2  3
 17 22  1  0
 18 19  1  0
 19 20  1  0
 20 21  1  0
 22 23  1  0
 23 24  2  3
 24 25  1  0
M  CHG  1   3   1
M  END
