
     RDKit          3D

 25 28  0  0  0  0  0  0  0  0999 V2000
    2.5760    0.1920    2.6380 C   0  0  0  0  0  0  0  0  0  0  0  0
    2.6870   -0.3300    1.2150 C   0  0  1  0  0  0  0  0  0  0  0  0
    1.4360   -0.1090    0.5580 N   0  0  0  0  0  0  0  0  0  0  0  0
    0.5190   -1.1430    1.0670 C   0  0  0  0  0  0  0  0  0  0  0  0
   -0.5960   -1.2490    0.0620 C   0  0  1  0  0  0  0  0  0  0  0  0
   -1.2910    0.0910    0.0170 C   0  0  0  0  0  0  0  0  0  0  0  0
   -2.5470   -0.0370   -0.7290 N   0  0  0  0  0  0  0  0  0  0  0  0
   -2.7400   -0.6030   -1.9260 C   0  0  0  0  0  0  0  0  0  0  0  0
   -4.0480   -0.4900   -2.2170 N   0  0  0  0  0  0  0  0  0  0  0  0
   -4.6990    0.1450   -1.2130 C   0  0  0  0  0  0  0  0  0  0  0  0
   -6.0270    0.5030   -1.0250 C   0  0  0  0  0  0  0  0  0  0  0  0
   -6.4020    1.1600    0.1300 C   0  0  0  0  0  0  0  0  0  0  0  0
   -5.4480    1.4490    1.0780 C   0  0  0  0  0  0  0  0  0  0  0  0
   -5.9250    2.2830    2.5430 Cl  0  0  0  0  0  0  0  0  0  0  0  0
   -4.1320    1.0860    0.8740 C   0  0  0  0  0  0  0  0  0  0  0  0
   -3.7260    0.4260   -0.2750 C   0  0  0  0  0  0  0  0  0  0  0  0
   -1.6990   -1.2390   -2.7790 C   0  0  0  0  0  0  0  0  0  0  0  0
   -0.9920   -2.2640   -1.9180 C   0  0  0  0  0  0  0  0  0  0  0  0
   -0.0410   -1.6090   -1.1580 O   0  0  0  0  0  0  0  0  0  0  0  0
    3.8370    0.2950    0.5650 C   0  0  0  0  0  0  0  0  0  0  0  0
    3.7890    1.0420   -0.5250 C   0  0  0  0  0  0  0  0  0  0  0  0
    4.9570    1.6670   -1.1710 C   0  0  0  0  0  0  0  0  0  0  0  0
    6.1660    1.3910   -0.5080 O   0  0  0  0  0  0  0  0  0  0  0  0
    6.2530    0.6150    0.6310 C   0  0  0  0  0  0  0  0  0  0  0  0
    5.1570    0.0870    1.1540 C   0  0  0  0  0  0  0  0  0  0  0  0
  2  1  1  1
  2  3  1  0
  2 20  1  0
  3  4  1  0
  5  4  1  1
  5  6  1  0
  5 19  1  0
  6  7  1  0
  7  8  1  0
  7 16  1  0
  8  9  2  0
  8 17  1  0
  9 10  1  0
 10 11  2  0
 10 16  1  0
 11 12  1  0
 12 13  2  0
 13 14  1  0
 13 15  1  0
 15 16  2  0
 17 18  1  0
 18 19  1  0
 20 21  2  0
 20 25  1  0
 21 22  1  0
 22 23  1  0
 23 24  1  0
 24 25  2  0
M  CHG  1   3   1
M  END
