
     RDKit          3D

 29 32  0  0  0  0  0  0  0  0999 V2000
   -3.1370    3.9340    0.9480 C   0  0  0  0  0  0  0  0  0  0  0  0
   -3.1200    2.5720    0.7530 O   0  0  0  0  0  0  0  0  0  0  0  0
   -2.9000    2.1610   -0.5300 C   0  0  0  0  0  0  0  0  0  0  0  0
   -1.5790    2.5740   -1.1300 C   0  0  0  0  0  0  0  0  0  0  0  0
   -0.4400    2.0700   -0.4050 N   0  0  2  0  0  0  0  0  0  0  0  0
    0.3910    3.1420   -0.0050 C   0  0  0  0  0  0  0  0  0  0  0  0
    1.8040    3.0770   -0.4490 C   0  0  0  0  0  0  0  0  0  0  0  0
    2.3420    1.7250   -0.1940 C   0  0  0  0  0  0  0  0  0  0  0  0
    3.4460    1.1930    0.3080 N   0  0  0  0  0  0  0  0  0  0  0  0
    3.3850   -0.1630    0.2770 C   0  0  0  0  0  0  0  0  0  0  0  0
    4.4720   -0.9820    0.7740 C   0  0  0  0  0  0  0  0  0  0  0  0
    4.3770   -2.2210    0.7330 O   0  0  0  0  0  0  0  0  0  0  0  0
    5.6380   -0.4230    1.3050 O   0  0  0  0  0  0  0  0  0  0  0  0
    6.6550   -1.2920    1.7700 C   0  0  0  0  0  0  0  0  0  0  0  0
    2.1660   -0.5220   -0.2790 C   0  0  0  0  0  0  0  0  0  0  0  0
    1.7510   -1.9340   -0.4880 C   0  0  0  0  0  0  0  0  0  0  0  0
    1.5240    0.6520   -0.5680 C   0  0  0  0  0  0  0  0  0  0  0  0
    0.2270    1.0110   -1.1510 C   0  0  1  0  0  0  0  0  0  0  0  0
   -0.6770   -0.1680   -1.0390 C   0  0  0  0  0  0  0  0  0  0  0  0
   -0.8780   -0.7000    0.2480 C   0  0  0  0  0  0  0  0  0  0  0  0
   -1.7030   -1.7780    0.4520 C   0  0  0  0  0  0  0  0  0  0  0  0
   -2.3220   -2.3130   -0.6550 C   0  0  0  0  0  0  0  0  0  0  0  0
   -2.1320   -1.8010   -1.9170 C   0  0  0  0  0  0  0  0  0  0  0  0
   -1.2880   -0.6960   -2.1350 C   0  0  0  0  0  0  0  0  0  0  0  0
   -1.1160   -0.2040   -3.4060 O   0  0  0  0  0  0  0  0  0  0  0  0
   -3.2270   -3.4890   -0.4580 C   0  0  0  0  0  0  0  0  0  0  0  0
   -2.5690   -4.3180    0.5480 N   0  0  0  0  0  0  0  0  0  0  0  0
   -2.6290   -3.6160    1.7950 C   0  0  0  0  0  0  0  0  0  0  0  0
   -1.8990   -2.3220    1.8350 C   0  0  0  0  0  0  0  0  0  0  0  0
  1  2  1  0
  2  3  1  0
  3  4  1  0
  5  4  1  6
  5  6  1  0
  5 18  1  0
  6  7  1  0
  7  8  1  0
  8  9  1  0
  8 17  2  0
  9 10  1  0
 10 11  1  0
 10 15  2  0
 11 12  2  0
 11 13  1  0
 13 14  1  0
 15 16  1  0
 15 17  1  0
 17 18  1  0
 18 19  1  1
 19 20  2  0
 19 24  1  0
 20 21  1  0
 21 22  2  0
 21 29  1  0
 22 23  1  0
 22 26  1  0
 23 24  2  0
 24 25  1  0
 26 27  1  0
 27 28  1  0
 28 29  1  0
M  CHG  1   5   1
M  END
