
     RDKit          3D

 29 33  0  0  0  0  0  0  0  0999 V2000
   -6.6270    1.3520   -0.9430 C   0  0  0  0  0  0  0  0  0  0  0  0
   -5.1770    1.1440   -0.5980 C   0  0  0  0  0  0  0  0  0  0  0  0
   -4.1930    2.0810   -0.6410 C   0  0  0  0  0  0  0  0  0  0  0  0
   -3.0080    1.4920   -0.2510 C   0  0  0  0  0  0  0  0  0  0  0  0
   -1.6800    2.0780   -0.1330 C   0  0  0  0  0  0  0  0  0  0  0  0
   -3.3070    0.2070    0.0200 N   0  0  0  0  0  0  0  0  0  0  0  0
   -2.4780   -0.8500    0.4610 C   0  0  2  0  0  0  0  0  0  0  0  0
   -2.4840   -0.9770    1.9920 C   0  0  0  0  0  0  0  0  0  0  0  0
   -1.9660   -2.3350    2.3390 C   0  0  0  0  0  0  0  0  0  0  0  0
   -1.2220   -3.0170    1.2360 C   0  0  0  0  0  0  0  0  0  0  0  0
   -0.4870   -2.1270    0.3930 N   0  0  0  0  0  0  0  0  0  0  0  0
    0.7830   -2.4650   -0.1370 C   0  0  0  0  0  0  0  0  0  0  0  0
    1.2690   -3.5850    0.1500 O   0  0  0  0  0  0  0  0  0  0  0  0
    1.5430   -1.5700   -0.9950 C   0  0  0  0  0  0  0  0  0  0  0  0
    1.4700   -1.5200   -2.3710 C   0  0  0  0  0  0  0  0  0  0  0  0
    0.6030   -2.3670   -3.2650 C   0  0  0  0  0  0  0  0  0  0  0  0
    2.3310   -0.5610   -2.7470 N   0  0  0  0  0  0  0  0  0  0  0  0
    2.9270   -0.0210   -1.6860 N   0  0  0  0  0  0  0  0  0  0  0  0
    3.8310    0.9350   -1.5260 N   0  0  0  0  0  0  0  0  0  0  0  0
    4.3060    1.3330   -0.3350 C   0  0  0  0  0  0  0  0  0  0  0  0
    5.3370    2.4310   -0.2390 C   0  0  2  0  0  0  0  0  0  0  0  0
    6.4470    2.0890    0.7360 C   0  0  0  0  0  0  0  0  0  0  0  0
    5.4960    3.1790    1.0170 C   0  0  0  0  0  0  0  0  0  0  0  0
    3.8440    0.7340    0.7750 N   0  0  0  0  0  0  0  0  0  0  0  0
    2.9260   -0.2430    0.6750 C   0  0  0  0  0  0  0  0  0  0  0  0
    2.4750   -0.8210    1.6910 O   0  0  0  0  0  0  0  0  0  0  0  0
    2.4580   -0.6270   -0.5780 C   0  0  0  0  0  0  0  0  0  0  0  0
   -1.0470   -0.8040    0.0460 C   0  0  0  0  0  0  0  0  0  0  0  0
   -4.6230    0.0140   -0.1950 N   0  0  0  0  0  0  0  0  0  0  0  0
  1  2  1  0
  2  3  1  0
  2 29  2  0
  3  4  2  0
  4  5  1  0
  4  6  1  0
  7  6  1  1
  6 29  1  0
  7  8  1  0
  7 28  1  0
  8  9  1  0
  9 10  1  0
 10 11  1  0
 11 12  1  0
 11 28  1  0
 12 13  2  0
 12 14  1  0
 14 15  1  0
 14 27  2  0
 15 16  1  0
 15 17  2  0
 17 18  1  0
 18 19  1  0
 18 27  1  0
 19 20  2  0
 21 20  1  1
 20 24  1  0
 21 22  1  0
 21 23  1  0
 22 23  1  0
 24 25  1  0
 25 26  2  0
 25 27  1  0
M  END
