
     RDKit          3D

 29 32  0  0  0  0  0  0  0  0999 V2000
    3.0270   -0.6640   -4.3600 C   0  0  0  0  0  0  0  0  0  0  0  0
    2.0690   -0.0860   -3.3910 C   0  0  0  0  0  0  0  0  0  0  0  0
    0.9020    0.1500   -3.7690 O   0  0  0  0  0  0  0  0  0  0  0  0
    2.5060    0.1980   -2.0070 C   0  0  0  0  0  0  0  0  0  0  0  0
    3.7160   -0.0050   -1.4760 N   0  0  0  0  0  0  0  0  0  0  0  0
    3.7570    0.3700   -0.1870 C   0  0  0  0  0  0  0  0  0  0  0  0
    4.8980    0.3000    0.7340 C   0  0  0  0  0  0  0  0  0  0  0  0
    4.7550    0.7840    2.1400 C   0  0  0  0  0  0  0  0  0  0  0  0
    6.0250   -0.1880    0.2870 C   0  0  0  0  0  0  0  0  0  0  0  0
    6.1340   -0.6140   -0.9790 F   0  0  0  0  0  0  0  0  0  0  0  0
    2.5140    0.8270    0.0990 N   0  0  0  0  0  0  0  0  0  0  0  0
    1.7630    1.3460    1.0860 C   0  0  0  0  0  0  0  0  0  0  0  0
    0.4770    1.5820    0.5930 C   0  0  0  0  0  0  0  0  0  0  0  0
   -0.6190    2.1460    1.4100 C   0  0  0  0  0  0  0  0  0  0  0  0
   -1.3650    1.0580    2.0290 N   0  0  0  0  0  0  0  0  0  0  0  0
   -1.0550    0.5420    3.2240 N   0  0  0  0  0  0  0  0  0  0  0  0
   -1.9290   -0.4470    3.5120 C   0  0  0  0  0  0  0  0  0  0  0  0
   -2.0230   -1.3270    4.7040 C   0  0  0  0  0  0  0  0  0  0  0  0
   -2.7700   -0.5120    2.4640 N   0  0  0  0  0  0  0  0  0  0  0  0
   -2.4360    0.4090    1.5410 C   0  0  0  0  0  0  0  0  0  0  0  0
   -3.1180    0.6510    0.2630 C   0  0  0  0  0  0  0  0  0  0  0  0
   -3.5830   -0.3680   -0.4290 C   0  0  0  0  0  0  0  0  0  0  0  0
   -3.5120   -1.7460   -0.0890 N   0  0  0  0  0  0  0  0  0  0  0  0
   -4.1580   -2.4790   -1.1440 C   0  0  0  0  0  0  0  0  0  0  0  0
   -4.5860   -1.6380   -2.0490 C   0  0  0  0  0  0  0  0  0  0  0  0
   -4.2620   -0.2890   -1.6690 N   0  0  0  0  0  0  0  0  0  0  0  0
   -4.5970    0.8810   -2.4510 C   0  0  0  0  0  0  0  0  0  0  0  0
    0.5210    1.1850   -0.6880 N   0  0  0  0  0  0  0  0  0  0  0  0
    1.7400    0.7300   -0.9970 C   0  0  0  0  0  0  0  0  0  0  0  0
  1  2  1  0
  2  3  2  0
  2  4  1  0
  4  5  1  0
  4 29  2  0
  5  6  2  0
  6  7  1  0
  6 11  1  0
  7  8  1  0
  7  9  2  3
  9 10  1  0
 11 12  1  0
 11 29  1  0
 12 13  2  0
 13 14  1  0
 13 28  1  0
 14 15  1  0
 15 16  1  0
 15 20  1  0
 16 17  2  0
 17 18  1  0
 17 19  1  0
 19 20  2  0
 20 21  1  0
 21 22  2  3
 22 23  1  0
 22 26  1  0
 23 24  1  0
 24 25  2  0
 25 26  1  0
 26 27  1  0
 28 29  1  0
M  END
