
     RDKit          3D

 29 32  0  0  0  0  0  0  0  0999 V2000
    6.9680   -1.1390   -1.0900 C   0  0  0  0  0  0  0  0  0  0  0  0
    5.4690   -0.8800   -0.7590 C   0  0  0  0  0  0  0  0  0  0  0  0
    4.9100   -0.0460   -1.5290 C   0  0  0  0  0  0  0  0  0  0  0  0
    3.5930    0.5080   -1.6330 C   0  0  0  0  0  0  0  0  0  0  0  0
    3.3370    1.4140   -2.6260 C   0  0  0  0  0  0  0  0  0  0  0  0
    2.0560    1.9880   -2.7690 N   0  0  0  0  0  0  0  0  0  0  0  0
    0.9700    1.6840   -1.9250 C   0  0  0  0  0  0  0  0  0  0  0  0
   -0.2440    2.2470   -2.0830 N   0  0  0  0  0  0  0  0  0  0  0  0
   -1.2250    1.9000   -1.2320 C   0  0  0  0  0  0  0  0  0  0  0  0
   -1.0470    0.9960   -0.2070 C   0  0  0  0  0  0  0  0  0  0  0  0
   -2.1710    0.6490    0.7060 C   0  0  0  0  0  0  0  0  0  0  0  0
   -2.9240   -0.4770    0.2470 N   0  0  0  0  0  0  0  0  0  0  0  0
   -3.5400   -0.3250   -1.0320 C   0  0  0  0  0  0  0  0  0  0  0  0
   -4.6900    0.5970   -0.7870 C   0  0  0  0  0  0  0  0  0  0  0  0
   -5.1100    0.2250    0.6310 C   0  0  1  0  0  0  0  0  0  0  0  0
   -6.4150   -0.3750    0.5920 N   0  0  0  0  0  0  0  0  0  0  0  0
   -6.7220   -1.6550    0.4600 C   0  0  0  0  0  0  0  0  0  0  0  0
   -8.0820   -1.7830    0.4730 N   0  0  0  0  0  0  0  0  0  0  0  0
   -8.5890   -0.5760    0.6130 N   0  0  0  0  0  0  0  0  0  0  0  0
   -7.5650    0.2940    0.6870 C   0  0  0  0  0  0  0  0  0  0  0  0
   -7.7190    1.5400    0.8240 O   0  0  0  0  0  0  0  0  0  0  0  0
   -4.0460   -0.6820    1.1420 C   0  0  0  0  0  0  0  0  0  0  0  0
    0.1760    0.4470   -0.0700 N   0  0  0  0  0  0  0  0  0  0  0  0
    1.1790    0.7790   -0.9110 C   0  0  0  0  0  0  0  0  0  0  0  0
    2.4980    0.2140   -0.7960 N   0  0  0  0  0  0  0  0  0  0  0  0
    5.0410   -1.6800    0.3830 C   0  0  0  0  0  0  0  0  0  0  0  0
    5.8580   -1.3250    1.6410 C   0  0  0  0  0  0  0  0  0  0  0  0
    5.6690    0.1340    1.9770 C   0  0  0  0  0  0  0  0  0  0  0  0
    6.3980    0.4410    3.0940 F   0  0  0  0  0  0  0  0  0  0  0  0
  1  2  1  0
  2  3  2  3
  2 26  1  0
  3  4  1  0
  4  5  2  0
  4 25  1  0
  5  6  1  0
  6  7  1  0
  7  8  2  0
  7 24  1  0
  8  9  1  0
  9 10  2  0
 10 11  1  0
 10 23  1  0
 11 12  1  0
 12 13  1  0
 12 22  1  0
 13 14  1  0
 14 15  1  0
 15 16  1  6
 15 22  1  0
 16 17  1  0
 16 20  1  0
 17 18  2  0
 18 19  1  0
 19 20  1  0
 20 21  2  0
 23 24  2  0
 24 25  1  0
 26 27  1  0
 27 28  1  0
 28 29  1  0
M  END
