
     RDKit          3D

 29 33  0  0  0  0  0  0  0  0999 V2000
    0.6520   -1.9480    3.9150 O   0  0  0  0  0  0  0  0  0  0  0  0
    0.1150   -1.6300    2.8240 C   0  0  0  0  0  0  0  0  0  0  0  0
   -1.2210   -1.5860    2.6590 N   0  0  0  0  0  0  0  0  0  0  0  0
   -1.7250   -1.2360    1.4620 C   0  0  0  0  0  0  0  0  0  0  0  0
   -3.0850   -1.1950    1.3080 C   0  0  0  0  0  0  0  0  0  0  0  0
   -3.6590   -0.8430    0.1030 C   0  0  0  0  0  0  0  0  0  0  0  0
   -2.8630   -0.5240   -0.9740 C   0  0  0  0  0  0  0  0  0  0  0  0
   -1.5080   -0.5610   -0.8310 C   0  0  0  0  0  0  0  0  0  0  0  0
   -0.9450   -0.9150    0.3810 C   0  0  0  0  0  0  0  0  0  0  0  0
    0.4040   -0.9620    0.5560 N   0  0  0  0  0  0  0  0  0  0  0  0
    1.3840   -0.7160   -0.2700 N   0  0  0  0  0  0  0  0  0  0  0  0
    2.5890   -0.8860    0.3230 C   0  0  0  0  0  0  0  0  0  0  0  0
    3.9330   -0.7170   -0.2380 C   0  0  0  0  0  0  0  0  0  0  0  0
    4.4480    0.6250   -0.0790 N   0  0  0  0  0  0  0  0  0  0  0  0
    5.7380    0.9300   -0.5760 C   0  0  0  0  0  0  0  0  0  0  0  0
    6.2280    2.1690   -0.4360 N   0  0  0  0  0  0  0  0  0  0  0  0
    7.4540    2.5190   -0.8900 C   0  0  0  0  0  0  0  0  0  0  0  0
    8.2370    1.5680   -1.5240 C   0  0  0  0  0  0  0  0  0  0  0  0
    7.7290    0.3080   -1.6620 C   0  0  0  0  0  0  0  0  0  0  0  0
    6.4900    0.0050   -1.1880 N   0  0  0  0  0  0  0  0  0  0  0  0
    2.2980   -1.2670    1.6170 C   0  0  0  0  0  0  0  0  0  0  0  0
    0.9210   -1.3090    1.7430 C   0  0  0  0  0  0  0  0  0  0  0  0
   -3.4420   -0.1460   -2.2650 C   0  0  0  0  0  0  0  0  0  0  0  0
   -4.9080    0.0980   -2.2410 C   0  0  0  0  0  0  0  0  0  0  0  0
   -5.5080    0.1760   -0.9580 N   0  0  0  0  0  0  0  0  0  0  0  0
   -5.6980    1.4910   -0.4360 C   0  0  0  0  0  0  0  0  0  0  0  0
   -4.4340    2.2280   -0.2910 N   0  0  0  0  0  0  0  0  0  0  0  0
   -4.7610    3.4580    0.2120 F   0  0  0  0  0  0  0  0  0  0  0  0
   -5.1200   -0.8140   -0.0120 C   0  0  0  0  0  0  0  0  0  0  0  0
  1  2  2  0
  2  3  1  0
  2 22  1  0
  3  4  1  0
  4  5  2  0
  4  9  1  0
  5  6  1  0
  6  7  2  0
  6 29  1  0
  7  8  1  0
  7 23  1  0
  8  9  2  0
  9 10  1  0
 10 11  1  0
 10 22  1  0
 11 12  2  0
 12 13  1  0
 12 21  1  0
 13 14  1  0
 14 15  1  0
 15 16  2  0
 15 20  1  0
 16 17  1  0
 17 18  2  0
 18 19  1  0
 19 20  2  0
 21 22  2  0
 23 24  1  0
 24 25  1  0
 25 26  1  0
 25 29  1  0
 26 27  1  0
 27 28  1  0
M  END
