
     RDKit          3D

 31 34  0  0  0  0  0  0  0  0999 V2000
    4.9880   -0.7260   -2.1460 C   0  0  0  0  0  0  0  0  0  0  0  0
    4.7370   -0.5000   -0.6990 C   0  0  0  0  0  0  0  0  0  0  0  0
    5.6070   -0.9400    0.2790 C   0  0  0  0  0  0  0  0  0  0  0  0
    5.4000   -0.7480    1.6270 C   0  0  0  0  0  0  0  0  0  0  0  0
    4.2500   -0.0760    1.9810 C   0  0  0  0  0  0  0  0  0  0  0  0
    3.3630    0.3750    1.0310 C   0  0  0  0  0  0  0  0  0  0  0  0
    3.6070    0.1630   -0.3170 C   0  0  0  0  0  0  0  0  0  0  0  0
    2.6110    0.6830   -1.2450 C   0  0  0  0  0  0  0  0  0  0  0  0
    3.0120    0.8750   -2.4270 O   0  0  0  0  0  0  0  0  0  0  0  0
    1.2340    0.9900   -0.9230 C   0  0  0  0  0  0  0  0  0  0  0  0
    0.7590    2.2880   -1.0310 C   0  0  0  0  0  0  0  0  0  0  0  0
   -0.5300    2.6240   -0.7100 C   0  0  0  0  0  0  0  0  0  0  0  0
   -1.3780    1.6390   -0.2650 C   0  0  0  0  0  0  0  0  0  0  0  0
   -0.9230    0.3300   -0.1490 C   0  0  0  0  0  0  0  0  0  0  0  0
    0.3700    0.0100   -0.4760 C   0  0  0  0  0  0  0  0  0  0  0  0
    0.8350   -1.3910   -0.3840 C   0  0  0  0  0  0  0  0  0  0  0  0
   -1.9870   -0.4600    0.3280 C   0  0  0  0  0  0  0  0  0  0  0  0
   -2.1210   -1.7900    0.6320 C   0  0  0  0  0  0  0  0  0  0  0  0
   -3.3240   -2.2700    1.0940 C   0  0  0  0  0  0  0  0  0  0  0  0
   -3.5170   -3.9860    1.4920 S   0  0  1  0  0  0  0  0  0  0  0  0
   -2.7620   -4.8320    0.4920 O   0  0  0  0  0  0  0  0  0  0  0  0
   -3.0900   -4.2330    2.8890 O   0  0  0  0  0  0  0  0  0  0  0  0
   -4.3720   -1.3910    1.2400 C   0  0  0  0  0  0  0  0  0  0  0  0
   -4.2460   -0.0590    0.9390 C   0  0  0  0  0  0  0  0  0  0  0  0
   -3.0430    0.4340    0.4740 C   0  0  0  0  0  0  0  0  0  0  0  0
   -2.6640    1.6790    0.1170 N   0  0  0  0  0  0  0  0  0  0  0  0
   -3.4750    2.8560    0.1340 C   0  0  0  0  0  0  0  0  0  0  0  0
   -4.2060    3.0890   -1.1690 C   0  0  1  0  0  0  0  0  0  0  0  0
   -5.0370    2.0190   -1.4440 F   0  0  0  0  0  0  0  0  0  0  0  0
   -4.9880    4.2160   -1.1080 F   0  0  0  0  0  0  0  0  0  0  0  0
   -3.2690    3.2100   -2.1630 F   0  0  0  0  0  0  0  0  0  0  0  0
  1  2  1  0
  2  3  2  0
  2  7  1  0
  3  4  1  0
  4  5  2  0
  5  6  1  0
  6  7  2  0
  7  8  1  0
  8  9  2  0
  8 10  1  0
 10 11  2  0
 10 15  1  0
 11 12  1  0
 12 13  2  0
 13 14  1  0
 13 26  1  0
 14 15  2  0
 14 17  1  0
 15 16  1  0
 17 18  2  0
 17 25  1  0
 18 19  1  0
 20 19  1  6
 19 23  2  0
 20 21  2  0
 20 22  2  0
 23 24  1  0
 24 25  2  0
 25 26  1  0
 26 27  1  0
 27 28  1  0
 28 29  1  6
 28 30  1  0
 28 31  1  0
M  END
