
     RDKit          3D

 29 33  0  0  0  0  0  0  0  0999 V2000
    6.5500   -2.4110    0.7810 C   0  0  0  0  0  0  0  0  0  0  0  0
    5.1240   -2.2980    0.5350 N   0  0  0  0  0  0  0  0  0  0  0  0
    4.7670   -0.9190    0.6640 C   0  0  0  0  0  0  0  0  0  0  0  0
    3.3090   -0.6870    0.4290 C   0  0  0  0  0  0  0  0  0  0  0  0
    2.3890   -1.6300    0.1270 N   0  0  0  0  0  0  0  0  0  0  0  0
    1.2020   -1.0150   -0.0040 N   0  0  0  0  0  0  0  0  0  0  0  0
    1.3960    0.2830    0.2140 C   0  0  0  0  0  0  0  0  0  0  0  0
    0.3450    1.3200    0.1670 C   0  0  0  0  0  0  0  0  0  0  0  0
    0.7190    2.6120    0.4130 N   0  0  0  0  0  0  0  0  0  0  0  0
   -0.1670    3.5960    0.3550 C   0  0  0  0  0  0  0  0  0  0  0  0
   -1.4770    3.3250    0.0470 C   0  0  0  0  0  0  0  0  0  0  0  0
   -2.4180    4.4360   -0.0070 C   0  0  0  0  0  0  0  0  0  0  0  0
   -2.1120    5.7560    0.2260 C   0  0  0  0  0  0  0  0  0  0  0  0
   -3.2090    6.5220    0.0960 N   0  0  0  0  0  0  0  0  0  0  0  0
   -4.1890    5.6560   -0.2200 C   0  0  0  0  0  0  0  0  0  0  0  0
   -3.7340    4.4010   -0.2870 N   0  0  0  0  0  0  0  0  0  0  0  0
   -1.8530    2.0540   -0.1950 N   0  0  0  0  0  0  0  0  0  0  0  0
   -0.9480    1.0280   -0.1380 C   0  0  0  0  0  0  0  0  0  0  0  0
   -1.3870   -0.3150   -0.3420 N   0  0  0  0  0  0  0  0  0  0  0  0
   -1.4770   -0.8500   -1.6560 C   0  0  0  0  0  0  0  0  0  0  0  0
   -1.7980   -2.0960   -1.9260 C   0  0  0  0  0  0  0  0  0  0  0  0
   -2.0880   -3.0090   -0.8370 C   0  0  0  0  0  0  0  0  0  0  0  0
   -2.4180   -4.3080   -0.7960 C   0  0  0  0  0  0  0  0  0  0  0  0
   -2.5470   -5.0600   -1.9100 F   0  0  0  0  0  0  0  0  0  0  0  0
   -2.5780   -4.7020    0.6140 C   0  0  0  0  0  0  0  0  0  0  0  0
   -2.3010   -3.4780    1.3850 C   0  0  0  0  0  0  0  0  0  0  0  0
   -2.0200   -2.5070    0.5260 C   0  0  0  0  0  0  0  0  0  0  0  0
   -1.7110   -1.0950    0.8290 C   0  0  0  0  0  0  0  0  0  0  0  0
    2.6590    0.4330    0.4670 O   0  0  0  0  0  0  0  0  0  0  0  0
  1  2  1  0
  2  3  1  0
  3  4  1  0
  4  5  2  0
  4 29  1  0
  5  6  1  0
  6  7  2  0
  7  8  1  0
  7 29  1  0
  8  9  2  0
  8 18  1  0
  9 10  1  0
 10 11  2  0
 11 12  1  0
 11 17  1  0
 12 13  2  0
 12 16  1  0
 13 14  1  0
 14 15  1  0
 15 16  2  0
 17 18  2  0
 18 19  1  0
 19 20  1  0
 19 28  1  0
 20 21  2  0
 21 22  1  0
 22 23  2  0
 22 27  1  0
 23 24  1  0
 23 25  1  0
 25 26  1  0
 26 27  2  0
 27 28  1  0
M  END
