
     RDKit          3D

 29 33  0  0  0  0  0  0  0  0999 V2000
    8.8090    1.3540   -0.0700 C   0  0  0  0  0  0  0  0  0  0  0  0
    7.4570    0.7640   -0.3140 C   0  0  0  0  0  0  0  0  0  0  0  0
    6.3030    1.0170    0.3060 N   0  0  0  0  0  0  0  0  0  0  0  0
    5.3120    0.2830   -0.2030 N   0  0  0  0  0  0  0  0  0  0  0  0
    3.9870    0.2020    0.1010 C   0  0  0  0  0  0  0  0  0  0  0  0
    3.2130   -0.6560   -0.6060 C   0  0  0  0  0  0  0  0  0  0  0  0
    3.7180   -1.4430   -1.6160 C   0  0  0  0  0  0  0  0  0  0  0  0
    5.0400   -1.3180   -1.8710 N   0  0  0  0  0  0  0  0  0  0  0  0
    5.8250   -0.4740   -1.1820 C   0  0  0  0  0  0  0  0  0  0  0  0
    7.1850   -0.1890   -1.2730 C   0  0  0  0  0  0  0  0  0  0  0  0
    8.0980   -0.7220   -2.1260 F   0  0  0  0  0  0  0  0  0  0  0  0
    1.7830   -0.7090   -0.2380 C   0  0  0  0  0  0  0  0  0  0  0  0
    0.8040   -1.4600   -0.7700 N   0  0  0  0  0  0  0  0  0  0  0  0
   -0.3450   -1.1720   -0.1140 C   0  0  0  0  0  0  0  0  0  0  0  0
   -1.6120   -1.6350   -0.2450 N   0  0  0  0  0  0  0  0  0  0  0  0
   -2.6390   -1.2070    0.5280 C   0  0  0  0  0  0  0  0  0  0  0  0
   -3.9440   -1.7730    0.3540 N   0  0  0  0  0  0  0  0  0  0  0  0
   -5.1380   -1.3620    1.0160 C   0  0  0  0  0  0  0  0  0  0  0  0
   -5.9260   -0.2850    0.3240 C   0  0  1  0  0  0  0  0  0  0  0  0
   -5.1070    0.9610    0.1570 C   0  0  0  0  0  0  0  0  0  0  0  0
   -6.3430   -0.7280   -1.0670 C   0  0  0  0  0  0  0  0  0  0  0  0
   -7.1060    0.3180   -1.7350 N   0  0  0  0  0  0  0  0  0  0  0  0
   -7.4900   -0.0340   -2.9600 O   0  0  0  0  0  0  0  0  0  0  0  0
   -2.3390   -0.2590    1.4790 C   0  0  0  0  0  0  0  0  0  0  0  0
   -1.0470    0.2300    1.6310 C   0  0  0  0  0  0  0  0  0  0  0  0
   -0.0250   -0.2270    0.8260 C   0  0  0  0  0  0  0  0  0  0  0  0
    1.2970    0.0550    0.7430 N   0  0  0  0  0  0  0  0  0  0  0  0
    2.0880    0.9920    1.5360 C   0  0  0  0  0  0  0  0  0  0  0  0
    3.5110    1.0630    1.1810 C   0  0  0  0  0  0  0  0  0  0  0  0
  1  2  1  0
  2  3  2  0
  2 10  1  0
  3  4  1  0
  4  5  1  0
  4  9  1  0
  5  6  2  0
  5 29  1  0
  6  7  1  0
  6 12  1  0
  7  8  2  0
  8  9  1  0
  9 10  2  0
 10 11  1  0
 12 13  2  0
 12 27  1  0
 13 14  1  0
 14 15  2  0
 14 26  1  0
 15 16  1  0
 16 17  1  0
 16 24  2  0
 17 18  1  0
 18 19  1  0
 19 20  1  6
 19 21  1  0
 21 22  1  0
 22 23  1  0
 24 25  1  0
 25 26  2  0
 26 27  1  0
 27 28  1  0
 28 29  1  0
M  END
