
     RDKit          3D

 28 30  0  0  0  0  0  0  0  0999 V2000
   -1.8220    0.7580    3.7840 C   0  0  0  0  0  0  0  0  0  0  0  0
   -1.9080   -0.4840    3.3340 C   0  0  0  0  0  0  0  0  0  0  0  0
   -3.1250   -1.0290    2.6850 C   0  0  0  0  0  0  0  0  0  0  0  0
   -2.8510   -1.5360    1.2660 C   0  0  2  0  0  0  0  0  0  0  0  0
   -1.8550   -2.5960    1.2930 C   0  0  0  0  0  0  0  0  0  0  0  0
   -0.6510   -2.4030    0.4930 C   0  0  0  0  0  0  0  0  0  0  0  0
    0.4490   -3.8100    0.4920 Cl  0  0  0  0  0  0  0  0  0  0  0  0
   -0.2890   -1.3400   -0.2070 C   0  0  0  0  0  0  0  0  0  0  0  0
    1.0060   -1.2860   -0.9990 C   0  0  1  0  0  0  0  0  0  0  0  0
    1.4740   -2.6550   -0.7490 O   0  0  0  0  0  0  0  0  0  0  0  0
    0.8220   -1.3930   -2.4470 C   0  0  0  0  0  0  0  0  0  0  0  0
    1.9600   -1.8180   -3.1910 O   0  0  0  0  0  0  0  0  0  0  0  0
    2.0360   -0.5260   -0.3090 C   0  0  0  0  0  0  0  0  0  0  0  0
    3.3600   -0.3320   -0.8950 C   0  0  0  0  0  0  0  0  0  0  0  0
    3.7430   -0.8220   -1.9560 O   0  0  0  0  0  0  0  0  0  0  0  0
    4.3420    0.4930   -0.2130 N   0  0  0  0  0  0  0  0  0  0  0  0
    5.6480    0.6790   -0.7980 C   0  0  0  0  0  0  0  0  0  0  0  0
    6.5110    1.5680    0.0690 C   0  0  0  0  0  0  0  0  0  0  0  0
    7.7680    1.7400   -0.5060 O   0  0  0  0  0  0  0  0  0  0  0  0
   -1.2720   -0.2550   -0.1890 C   0  0  0  0  0  0  0  0  0  0  0  0
   -2.4260   -0.3570    0.4780 C   0  0  0  0  0  0  0  0  0  0  0  0
   -3.4500    0.7370    0.4790 C   0  0  0  0  0  0  0  0  0  0  0  0
   -3.2440    1.8060   -0.5220 C   0  0  2  0  0  0  0  0  0  0  0  0
   -3.8110    3.1380   -0.0650 C   0  0  0  0  0  0  0  0  0  0  0  0
   -3.9440    1.4480   -1.8170 C   0  0  0  0  0  0  0  0  0  0  0  0
   -1.8870    2.0250   -0.8260 O   0  0  0  0  0  0  0  0  0  0  0  0
   -0.9640    0.9780   -0.8770 C   0  0  0  0  0  0  0  0  0  0  0  0
    0.0940    1.1540   -1.5160 O   0  0  0  0  0  0  0  0  0  0  0  0
  1  2  2  0
  2  3  1  0
  4  3  1  1
  4  5  1  0
  4 21  1  0
  5  6  1  0
  6  7  1  0
  6  8  2  0
  8  9  1  0
  8 20  1  0
  9 10  1  0
  9 11  1  6
  9 13  1  0
 11 12  1  0
 13 14  1  0
 14 15  2  0
 14 16  1  0
 16 17  1  0
 17 18  1  0
 18 19  1  0
 20 21  2  0
 20 27  1  0
 21 22  1  0
 22 23  1  0
 23 24  1  1
 23 25  1  0
 23 26  1  0
 26 27  1  0
 27 28  2  0
 10  7  1  0
M  END
