
     RDKit          3D

 29 31  0  0  0  0  0  0  0  0999 V2000
   -2.2020   -1.4220    4.1020 C   0  0  0  0  0  0  0  0  0  0  0  0
   -2.4100   -0.4710    3.0090 N   0  0  0  0  0  0  0  0  0  0  0  0
   -1.3440    0.0960    2.2990 C   0  0  0  0  0  0  0  0  0  0  0  0
    0.1580    0.3820    3.2610 Cl  0  0  0  0  0  0  0  0  0  0  0  0
   -1.2980    0.4410    1.0180 C   0  0  0  0  0  0  0  0  0  0  0  0
   -0.0280    1.0310    0.6060 C   0  0  0  0  0  0  0  0  0  0  0  0
    0.8760    1.1680    1.5380 O   0  0  0  0  0  0  0  0  0  0  0  0
    0.4630    1.4880   -0.5690 O   0  0  0  0  0  0  0  0  0  0  0  0
    1.7290    2.0170   -0.7560 C   0  0  0  0  0  0  0  0  0  0  0  0
    2.0330    3.3400   -0.6250 C   0  0  0  0  0  0  0  0  0  0  0  0
    3.3300    3.8230   -0.8260 C   0  0  0  0  0  0  0  0  0  0  0  0
    4.3210    2.9360   -1.1660 C   0  0  0  0  0  0  0  0  0  0  0  0
    4.0120    1.5940   -1.2990 C   0  0  0  0  0  0  0  0  0  0  0  0
    2.7390    1.1010   -1.1030 C   0  0  0  0  0  0  0  0  0  0  0  0
    2.3790   -0.1570   -1.2090 O   0  0  0  0  0  0  0  0  0  0  0  0
    2.9150   -1.3600   -1.4470 C   0  0  0  0  0  0  0  0  0  0  0  0
    3.8460   -2.0110   -0.4880 C   0  0  0  0  0  0  0  0  0  0  0  0
    5.1100   -1.3280   -0.1350 C   0  0  0  0  0  0  0  0  0  0  0  0
    5.8760   -2.1200    0.7700 O   0  0  0  0  0  0  0  0  0  0  0  0
   -2.3640    0.0120    0.1270 C   0  0  0  0  0  0  0  0  0  0  0  0
   -2.5400    0.4360   -1.1400 C   0  0  0  0  0  0  0  0  0  0  0  0
   -1.4400    1.5850   -1.8650 Cl  0  0  0  0  0  0  0  0  0  0  0  0
   -3.7850    0.1430   -1.8990 C   0  0  0  0  0  0  0  0  0  0  0  0
   -3.8810    0.6270   -3.2900 C   0  0  0  0  0  0  0  0  0  0  0  0
   -4.7610   -0.5200   -1.3580 C   0  0  0  0  0  0  0  0  0  0  0  0
   -4.6490   -1.0060    0.0820 C   0  0  2  0  0  0  0  0  0  0  0  0
   -5.2310   -0.0400    0.8700 O   0  0  0  0  0  0  0  0  0  0  0  0
   -3.2040   -1.2180    0.3500 C   0  0  2  0  0  0  0  0  0  0  0  0
   -2.8980   -2.1190    1.2660 O   0  0  0  0  0  0  0  0  0  0  0  0
  1  2  1  0
  2  3  1  0
  3  4  1  0
  3  5  2  0
  5  6  1  0
  5 20  1  0
  6  7  2  0
  6  8  1  0
  8  9  1  0
  9 10  2  0
  9 14  1  0
 10 11  1  0
 11 12  2  0
 12 13  1  0
 13 14  2  0
 14 15  1  0
 15 16  1  0
 16 17  1  0
 17 18  1  0
 18 19  1  0
 20 21  2  0
 20 28  1  0
 21 22  1  0
 21 23  1  0
 23 24  1  0
 23 25  2  0
 25 26  1  0
 26 27  1  1
 26 28  1  0
 28 29  1  1
  7  4  1  0
M  END
