
     RDKit          3D

 29 29  0  0  0  0  0  0  0  0999 V2000
   -5.6550   -1.6280    1.0320 C   0  0  0  0  0  0  0  0  0  0  0  0
   -6.1970   -0.9330   -0.1830 C   0  0  2  0  0  0  0  0  0  0  0  0
   -6.2820   -1.7860   -1.2730 O   0  0  0  0  0  0  0  0  0  0  0  0
   -5.3910    0.2920   -0.5370 C   0  0  0  0  0  0  0  0  0  0  0  0
   -3.9640   -0.0610   -0.8260 C   0  0  0  0  0  0  0  0  0  0  0  0
   -3.1840    1.1350   -1.1700 C   0  0  0  0  0  0  0  0  0  0  0  0
   -3.7510    2.2700   -1.1890 O   0  0  0  0  0  0  0  0  0  0  0  0
   -1.8000    1.0710   -1.4860 N   0  0  0  0  0  0  0  0  0  0  0  0
   -1.0430    2.2410   -1.8210 C   0  0  0  0  0  0  0  0  0  0  0  0
   -1.1500   -0.2180   -1.4660 C   0  0  0  0  0  0  0  0  0  0  0  0
   -0.6220   -0.4310   -0.0700 C   0  0  0  0  0  0  0  0  0  0  0  0
   -0.0110   -1.4880    0.2060 O   0  0  0  0  0  0  0  0  0  0  0  0
   -0.8080    0.5190    0.8860 O   0  0  0  0  0  0  0  0  0  0  0  0
   -0.3800    0.4990    2.1890 C   0  0  0  0  0  0  0  0  0  0  0  0
    1.0940    0.6550    2.3850 C   0  0  1  0  0  0  0  0  0  0  0  0
    1.5620    2.0610    2.1510 C   0  0  0  0  0  0  0  0  0  0  0  0
    1.1820    0.5620    3.8780 O   0  0  0  0  0  0  0  0  0  0  0  0
    1.9660   -0.3950    1.9470 C   0  0  0  0  0  0  0  0  0  0  0  0
    1.9640   -1.5900    2.7840 O   0  0  0  0  0  0  0  0  0  0  0  0
    2.7760   -0.5030    0.9240 C   0  0  0  0  0  0  0  0  0  0  0  0
    3.0150    0.4540   -0.0930 C   0  0  0  0  0  0  0  0  0  0  0  0
    3.8150    0.4940   -1.1010 C   0  0  0  0  0  0  0  0  0  0  0  0
    3.6300    2.0200   -2.0950 Cl  0  0  0  0  0  0  0  0  0  0  0  0
    4.9890   -0.2690   -1.4690 C   0  0  0  0  0  0  0  0  0  0  0  0
    5.5920   -0.0980   -2.6740 C   0  0  0  0  0  0  0  0  0  0  0  0
    6.7460   -0.9870   -2.7590 C   0  0  0  0  0  0  0  0  0  0  0  0
    6.8190   -1.6580   -1.4730 C   0  0  0  0  0  0  0  0  0  0  0  0
    5.7850   -1.2350   -0.7300 C   0  0  0  0  0  0  0  0  0  0  0  0
    5.6330   -1.7670    0.9580 Cl  0  0  0  0  0  0  0  0  0  0  0  0
  2  1  1  1
  2  3  1  0
  2  4  1  0
  4  5  1  0
  5  6  1  0
  6  7  2  0
  6  8  1  0
  8  9  1  0
  8 10  1  0
 10 11  1  0
 11 12  2  0
 11 13  1  0
 13 14  1  0
 14 15  1  0
 15 16  1  6
 15 17  1  0
 15 18  1  0
 18 19  1  0
 18 20  2  3
 20 21  1  0
 21 22  2  3
 22 23  1  0
 22 24  1  0
 24 25  2  0
 24 28  1  0
 25 26  1  0
 26 27  1  0
 27 28  2  0
 28 29  1  0
M  END
