
     RDKit          3D

 28 29  0  0  0  0  0  0  0  0999 V2000
   -6.9300    2.4990   -3.5150 C   0  0  0  0  0  0  0  0  0  0  0  0
   -5.4760    2.4810   -3.1020 C   0  0  0  0  0  0  0  0  0  0  0  0
   -5.3430    1.3990   -2.1860 O   0  0  0  0  0  0  0  0  0  0  0  0
   -4.0610    1.0830   -1.6170 C   0  0  0  0  0  0  0  0  0  0  0  0
   -3.1790    1.8380   -2.0230 O   0  0  0  0  0  0  0  0  0  0  0  0
   -3.9470    0.0200   -0.7200 C   0  0  0  0  0  0  0  0  0  0  0  0
   -3.0230   -0.5330   -0.0510 C   0  0  0  0  0  0  0  0  0  0  0  0
   -1.6010   -0.3410    0.1290 C   0  0  0  0  0  0  0  0  0  0  0  0
   -0.9370    0.5980   -0.4510 O   0  0  0  0  0  0  0  0  0  0  0  0
   -0.4020    1.5820   -1.1160 C   0  0  0  0  0  0  0  0  0  0  0  0
   -0.9310   -1.2380    0.9920 C   0  0  0  0  0  0  0  0  0  0  0  0
   -1.6560   -2.2810    1.6530 C   0  0  0  0  0  0  0  0  0  0  0  0
   -1.0670   -3.2240    2.3960 C   0  0  0  0  0  0  0  0  0  0  0  0
    0.3660   -3.1620    2.5390 C   0  0  0  0  0  0  0  0  0  0  0  0
    1.1020   -4.2170    3.3520 C   0  0  0  0  0  0  0  0  0  0  0  0
    1.0670   -2.2250    1.9850 C   0  0  0  0  0  0  0  0  0  0  0  0
    0.5230   -1.0970    1.1500 C   0  0  1  0  0  0  0  0  0  0  0  0
    1.2260   -1.2290   -0.1580 C   0  0  0  0  0  0  0  0  0  0  0  0
    2.4660   -0.4480   -0.3700 C   0  0  0  0  0  0  0  0  0  0  0  0
    2.9630    0.3150    0.7220 N   0  0  0  0  0  0  0  0  0  0  0  0
    4.1170    1.1100    0.5740 C   0  0  0  0  0  0  0  0  0  0  0  0
    4.5160    1.8020    1.5580 O   0  0  0  0  0  0  0  0  0  0  0  0
    4.8790    1.1840   -0.6400 C   0  0  0  0  0  0  0  0  0  0  0  0
    4.5750    0.5100   -1.6390 O   0  0  0  0  0  0  0  0  0  0  0  0
    6.0010    2.0200   -0.7550 O   0  0  0  0  0  0  0  0  0  0  0  0
    6.7080    2.0510   -1.9690 C   0  0  0  0  0  0  0  0  0  0  0  0
    2.3350    0.3120    2.0460 C   0  0  0  0  0  0  0  0  0  0  0  0
    0.8600    0.1950    1.8840 C   0  0  0  0  0  0  0  0  0  0  0  0
  1  2  1  0
  2  3  1  0
  3  4  1  0
  4  5  2  0
  4  6  1  0
  6  7  2  3
  7  8  1  0
  8  9  1  0
  8 11  2  3
  9 10  1  0
 11 12  1  0
 11 17  1  0
 12 13  2  0
 13 14  1  0
 14 15  1  0
 14 16  2  0
 16 17  1  0
 17 18  1  6
 17 28  1  0
 18 19  1  0
 19 20  1  0
 20 21  1  0
 20 27  1  0
 21 22  2  0
 21 23  1  0
 23 24  2  0
 23 25  1  0
 25 26  1  0
 27 28  1  0
M  END
