
     RDKit          3D

 29 30  0  0  0  0  0  0  0  0999 V2000
   -4.9440    0.5430    1.3440 C   0  0  0  0  0  0  0  0  0  0  0  0
   -4.6300   -0.5010    2.1160 C   0  0  0  0  0  0  0  0  0  0  0  0
   -3.5160   -0.4430    3.0570 C   0  0  0  0  0  0  0  0  0  0  0  0
   -3.2340   -1.4850    3.8100 C   0  0  0  0  0  0  0  0  0  0  0  0
   -3.9770   -2.7600    3.7820 C   0  0  0  0  0  0  0  0  0  0  0  0
   -2.6980    0.7710    3.1530 C   0  0  1  0  0  0  0  0  0  0  0  0
   -1.8000    0.7410    4.2070 O   0  0  0  0  0  0  0  0  0  0  0  0
   -1.9150    1.0070    1.8810 C   0  0  0  0  0  0  0  0  0  0  0  0
   -1.1670    2.2370    1.7600 C   0  0  0  0  0  0  0  0  0  0  0  0
   -1.2360    3.1020    2.7150 O   0  0  0  0  0  0  0  0  0  0  0  0
   -1.8970    0.0910    0.9530 C   0  0  0  0  0  0  0  0  0  0  0  0
   -1.2090    0.1830   -0.2870 C   0  0  0  0  0  0  0  0  0  0  0  0
   -1.2750   -0.8510   -1.1620 C   0  0  0  0  0  0  0  0  0  0  0  0
   -1.9910   -1.9920   -0.8820 O   0  0  0  0  0  0  0  0  0  0  0  0
   -0.5340   -0.6710   -2.4250 C   0  0  0  0  0  0  0  0  0  0  0  0
    0.7350   -0.2280   -2.1490 O   0  0  0  0  0  0  0  0  0  0  0  0
    0.7530    0.9650   -1.4940 C   0  0  2  0  0  0  0  0  0  0  0  0
    1.9810    1.0690   -0.6240 C   0  0  0  0  0  0  0  0  0  0  0  0
    3.1160    1.0060   -1.3330 O   0  0  0  0  0  0  0  0  0  0  0  0
    3.9510    0.3920   -2.1090 C   0  0  0  0  0  0  0  0  0  0  0  0
    3.8160   -0.8980   -2.5710 C   0  0  0  0  0  0  0  0  0  0  0  0
    4.7440   -1.5140   -3.4010 C   0  0  0  0  0  0  0  0  0  0  0  0
    4.5020   -3.1750   -3.9570 Cl  0  0  0  0  0  0  0  0  0  0  0  0
    5.8490   -0.8000   -3.7780 C   0  0  0  0  0  0  0  0  0  0  0  0
    7.0250   -1.5480   -4.8200 Cl  0  0  0  0  0  0  0  0  0  0  0  0
    6.0420    0.4820   -3.3540 C   0  0  0  0  0  0  0  0  0  0  0  0
    5.1150    1.0740   -2.5340 C   0  0  0  0  0  0  0  0  0  0  0  0
    5.2800    2.4060   -2.0720 N   0  0  0  0  0  0  0  0  0  0  0  0
   -0.4350    1.2300   -0.7660 O   0  0  0  0  0  0  0  0  0  0  0  0
  1  2  2  0
  2  3  1  0
  3  4  2  3
  3  6  1  0
  4  5  1  0
  6  7  1  1
  6  8  1  0
  8  9  1  0
  8 11  2  3
  9 10  2  0
 11 12  1  0
 12 13  2  0
 12 29  1  0
 13 14  1  0
 13 15  1  0
 15 16  1  0
 16 17  1  0
 17 18  1  1
 17 29  1  0
 18 19  1  0
 19 20  1  0
 20 21  2  0
 20 27  1  0
 21 22  1  0
 22 23  1  0
 22 24  2  0
 24 25  1  0
 24 26  1  0
 26 27  2  0
 27 28  1  0
M  END
