
     RDKit          3D

 24 26  0  0  0  0  0  0  0  0999 V2000
    2.4300    1.8580   -1.7320 C   0  0  0  0  0  0  0  0  0  0  0  0
    1.4760    0.8080   -2.2360 C   0  0  1  0  0  0  0  0  0  0  0  0
    2.0510   -0.5420   -1.8850 C   0  0  0  0  0  0  0  0  0  0  0  0
    1.8530   -0.7240   -0.3910 C   0  0  2  0  0  0  0  0  0  0  0  0
    2.6380   -1.7780    0.1600 N   0  0  0  0  0  0  0  0  0  0  0  0
    3.6540   -1.5270    1.1320 C   0  0  0  0  0  0  0  0  0  0  0  0
    3.8060   -0.3060    1.4670 O   0  0  0  0  0  0  0  0  0  0  0  0
    4.4820   -2.6130    1.7170 C   0  0  0  0  0  0  0  0  0  0  0  0
    5.6250   -1.8610    2.8860 S   0  0  0  0  0  0  0  0  0  0  0  0
    6.8830   -1.3720    2.1720 O   0  0  0  0  0  0  0  0  0  0  0  0
    0.3730   -0.8710   -0.1650 C   0  0  0  0  0  0  0  0  0  0  0  0
   -0.2340    0.5120   -0.4200 C   0  0  2  0  0  0  0  0  0  0  0  0
   -1.6860    0.4490   -0.2760 N   0  0  0  0  0  0  0  0  0  0  0  0
   -2.2560    1.2250    0.7600 C   0  0  0  0  0  0  0  0  0  0  0  0
   -1.4960    1.9360    1.5130 O   0  0  0  0  0  0  0  0  0  0  0  0
   -3.6700    1.2690    1.0280 C   0  0  0  0  0  0  0  0  0  0  0  0
   -4.2190    2.0170    2.0270 N   0  0  0  0  0  0  0  0  0  0  0  0
   -5.5130    1.8340    2.0010 N   0  0  0  0  0  0  0  0  0  0  0  0
   -5.8570    0.9960    1.0280 C   0  0  0  0  0  0  0  0  0  0  0  0
   -6.8570    0.3520    0.3920 N   0  0  0  0  0  0  0  0  0  0  0  0
   -6.3670   -0.3870   -0.5860 C   0  0  0  0  0  0  0  0  0  0  0  0
   -5.0290   -0.2230   -0.5900 N   0  0  0  0  0  0  0  0  0  0  0  0
   -4.6860    0.6230    0.3930 C   0  0  0  0  0  0  0  0  0  0  0  0
    0.0690    0.9990   -1.7940 C   0  0  0  0  0  0  0  0  0  0  0  0
  2  1  1  1
  2  3  1  0
  2 24  1  0
  3  4  1  0
  4  5  1  6
  4 11  1  0
  5  6  1  0
  6  7  2  0
  6  8  1  0
  8  9  1  0
  9 10  2  0
 11 12  1  0
 12 13  1  6
 12 24  1  0
 13 14  1  0
 14 15  2  0
 14 16  1  0
 16 17  2  0
 16 23  1  0
 17 18  1  0
 18 19  1  0
 19 20  1  0
 19 23  2  0
 20 21  2  0
 21 22  1  0
 22 23  1  0
M  END
