
     RDKit          3D

 23 24  0  0  0  0  0  0  0  0999 V2000
    6.4020    1.0340    1.2770 C   0  0  0  0  0  0  0  0  0  0  0  0
    6.1740    0.1340   -0.2770 S   0  0  0  0  0  0  0  0  0  0  0  0
    4.6090    0.6080   -1.0860 C   0  0  0  0  0  0  0  0  0  0  0  0
    3.4200    0.1730   -0.2720 C   0  0  0  0  0  0  0  0  0  0  0  0
    3.3610   -1.3110   -0.0610 C   0  0  2  0  0  0  0  0  0  0  0  0
    3.2810   -2.0790   -1.2480 N   0  0  0  0  0  0  0  0  0  0  0  0
    2.0580   -2.0390   -1.8920 N   0  0  0  0  0  0  0  0  0  0  0  0
    0.8570   -1.9820   -1.1140 C   0  0  0  0  0  0  0  0  0  0  0  0
   -0.2780   -2.0850   -1.6070 O   0  0  0  0  0  0  0  0  0  0  0  0
    0.9830   -1.7930    0.3230 C   0  0  0  0  0  0  0  0  0  0  0  0
   -0.0020   -1.7250    1.1490 N   0  0  0  0  0  0  0  0  0  0  0  0
   -1.2970   -1.8380    0.6420 N   0  0  0  0  0  0  0  0  0  0  0  0
   -2.2520   -0.7650    0.7320 C   0  0  0  0  0  0  0  0  0  0  0  0
   -3.2800   -0.5260   -0.0560 C   0  0  0  0  0  0  0  0  0  0  0  0
   -3.6640   -1.2980   -1.1820 N   0  0  0  0  0  0  0  0  0  0  0  0
   -3.9990    0.6850    0.4050 C   0  0  2  0  0  0  0  0  0  0  0  0
   -5.4730    0.3800    0.5100 C   0  0  0  0  0  0  0  0  0  0  0  0
   -3.7300    1.8100   -0.5730 C   0  0  0  0  0  0  0  0  0  0  0  0
   -4.1530    1.5180   -1.8540 O   0  0  0  0  0  0  0  0  0  0  0  0
   -3.4060    1.0370    1.7390 C   0  0  0  0  0  0  0  0  0  0  0  0
   -2.1600    0.2440    1.7970 C   0  0  0  0  0  0  0  0  0  0  0  0
   -1.2190    0.4230    2.6150 O   0  0  0  0  0  0  0  0  0  0  0  0
    2.2960   -1.6790    0.8490 N   0  0  0  0  0  0  0  0  0  0  0  0
  1  2  1  0
  2  3  1  0
  3  4  1  0
  5  4  1  6
  5  6  1  0
  5 23  1  0
  6  7  1  0
  7  8  1  0
  8  9  2  0
  8 10  1  0
 10 11  2  3
 10 23  1  0
 11 12  1  0
 12 13  1  0
 13 14  2  0
 13 21  1  0
 14 15  1  0
 14 16  1  0
 16 17  1  1
 16 18  1  0
 16 20  1  0
 18 19  1  0
 20 21  1  0
 21 22  2  0
M  END
