
     RDKit          3D

 23 23  0  0  0  0  0  0  0  0999 V2000
   -0.4720    4.1330    0.6840 C   0  0  0  0  0  0  0  0  0  0  0  0
   -1.8150    3.5190    0.3470 C   0  0  0  0  0  0  0  0  0  0  0  0
   -1.8560    2.1590    0.7040 O   0  0  0  0  0  0  0  0  0  0  0  0
   -0.9950    1.2000    0.1880 C   0  0  0  0  0  0  0  0  0  0  0  0
   -0.1340    1.5890   -0.6460 O   0  0  0  0  0  0  0  0  0  0  0  0
   -1.1400   -0.1830    0.6380 C   0  0  2  0  0  0  0  0  0  0  0  0
   -2.1780   -0.2700    1.5530 O   0  0  0  0  0  0  0  0  0  0  0  0
    0.0870   -0.7460    1.2900 C   0  0  0  0  0  0  0  0  0  0  0  0
    1.2210   -0.7130    0.4410 O   0  0  0  0  0  0  0  0  0  0  0  0
    2.4590   -1.1830    0.8460 C   0  0  0  0  0  0  0  0  0  0  0  0
    2.5440   -1.6470    2.0120 O   0  0  0  0  0  0  0  0  0  0  0  0
    3.6370   -1.1530   -0.0280 C   0  0  0  0  0  0  0  0  0  0  0  0
    4.8960   -1.6030    0.3110 C   0  0  0  0  0  0  0  0  0  0  0  0
    5.7070   -1.4260   -0.7050 O   0  0  0  0  0  0  0  0  0  0  0  0
    5.0630   -0.8800   -1.7120 C   0  0  0  0  0  0  0  0  0  0  0  0
    3.7440   -0.6920   -1.3180 C   0  0  0  0  0  0  0  0  0  0  0  0
    2.7330   -0.1480   -2.0740 O   0  0  0  0  0  0  0  0  0  0  0  0
    2.5310    1.1690   -2.1670 O   0  0  0  0  0  0  0  0  0  0  0  0
   -1.5070   -0.9930   -0.5700 C   0  0  0  0  0  0  0  0  0  0  0  0
   -0.6580   -1.0250   -1.5280 O   0  0  0  0  0  0  0  0  0  0  0  0
   -2.7080   -1.7070   -0.7090 N   0  0  0  0  0  0  0  0  0  0  0  0
   -2.9380   -2.4610   -1.9510 C   0  0  0  0  0  0  0  0  0  0  0  0
   -3.7310   -1.7480    0.2920 C   0  0  0  0  0  0  0  0  0  0  0  0
  1  2  1  0
  2  3  1  0
  3  4  1  0
  4  5  2  0
  4  6  1  0
  6  7  1  1
  6  8  1  0
  6 19  1  0
  8  9  1  0
  9 10  1  0
 10 11  2  0
 10 12  1  0
 12 13  2  0
 12 16  1  0
 13 14  1  0
 14 15  1  0
 15 16  2  0
 16 17  1  0
 17 18  1  0
 19 20  2  0
 19 21  1  0
 21 22  1  0
 21 23  1  0
M  END
