
     RDKit          3D

 23 24  0  0  0  0  0  0  0  0999 V2000
   -0.0560    0.9750   -0.9360 O   0  0  0  0  0  0  0  0  0  0  0  0
   -1.0280    0.2190   -0.7310 C   0  0  0  0  0  0  0  0  0  0  0  0
   -0.8070   -1.0310   -0.2930 O   0  0  0  0  0  0  0  0  0  0  0  0
    0.3100   -1.7680    0.0280 C   0  0  0  0  0  0  0  0  0  0  0  0
    1.1270   -1.4210    1.0260 O   0  0  0  0  0  0  0  0  0  0  0  0
    1.8270   -0.2940    1.1150 C   0  0  0  0  0  0  0  0  0  0  0  0
    2.8660   -0.1440   -0.0100 C   0  0  0  0  0  0  0  0  0  0  0  0
    3.5090    1.0350    0.1740 O   0  0  0  0  0  0  0  0  0  0  0  0
    4.4760    1.3640   -0.7190 C   0  0  0  0  0  0  0  0  0  0  0  0
    5.6220    0.4220   -0.8250 C   0  0  0  0  0  0  0  0  0  0  0  0
    6.3160    0.2660    0.3740 O   0  0  0  0  0  0  0  0  0  0  0  0
    7.3190   -0.5700    0.2460 O   0  0  0  0  0  0  0  0  0  0  0  0
    7.5210   -1.2830    1.3320 O   0  0  0  0  0  0  0  0  0  0  0  0
   -2.3850    0.7930   -1.0000 C   0  0  2  0  0  0  0  0  0  0  0  0
   -2.6350    2.0110   -0.1370 C   0  0  0  0  0  0  0  0  0  0  0  0
   -3.1130    1.6330    1.2480 C   0  0  0  0  0  0  0  0  0  0  0  0
   -4.4000    0.8350    1.1940 C   0  0  0  0  0  0  0  0  0  0  0  0
   -4.6840    0.3500   -0.2150 C   0  0  2  0  0  0  0  0  0  0  0  0
   -5.6340   -0.7970   -0.2700 C   0  0  0  0  0  0  0  0  0  0  0  0
   -4.7780   -1.9340   -0.2210 O   0  0  0  0  0  0  0  0  0  0  0  0
   -3.5770   -1.5620   -0.8580 C   0  0  0  0  0  0  0  0  0  0  0  0
   -2.7810   -2.3480   -1.4320 O   0  0  0  0  0  0  0  0  0  0  0  0
   -3.4390   -0.1670   -0.7350 N   0  0  0  0  0  0  0  0  0  0  0  0
  1  2  2  0
  2  3  1  0
 14  2  1  1
  3  4  1  0
  4  5  1  0
  5  6  1  0
  6  7  1  0
  7  8  1  0
  8  9  1  0
  9 10  1  0
 10 11  1  0
 11 12  1  0
 12 13  1  0
 14 15  1  0
 14 23  1  0
 15 16  1  0
 16 17  1  0
 18 17  1  1
 18 19  1  0
 18 23  1  0
 19 20  1  0
 20 21  1  0
 21 22  2  0
 21 23  1  0
M  END
