
     RDKit          3D

 23 24  0  0  0  0  0  0  0  0999 V2000
    3.3710   -2.1910    0.2190 O   0  0  0  0  0  0  0  0  0  0  0  0
    2.1990   -1.7150    0.2170 C   0  0  0  0  0  0  0  0  0  0  0  0
    1.0400   -2.6170    0.0560 C   0  0  0  0  0  0  0  0  0  0  0  0
   -0.1920   -1.9880   -0.0460 O   0  0  0  0  0  0  0  0  0  0  0  0
   -0.4960   -1.1220   -1.0790 C   0  0  0  0  0  0  0  0  0  0  0  0
    0.2800   -0.7210   -2.1630 C   0  0  0  0  0  0  0  0  0  0  0  0
   -0.4270    0.1040   -2.8700 O   0  0  0  0  0  0  0  0  0  0  0  0
   -1.6180    0.2860   -2.3430 C   0  0  0  0  0  0  0  0  0  0  0  0
   -1.7230   -0.4720   -1.1940 C   0  0  0  0  0  0  0  0  0  0  0  0
   -2.7820   -0.6040   -0.3060 O   0  0  0  0  0  0  0  0  0  0  0  0
   -3.9940    0.0960   -0.4990 C   0  0  2  0  0  0  0  0  0  0  0  0
   -4.2680    1.0380    0.6500 C   0  0  0  0  0  0  0  0  0  0  0  0
   -5.5720    1.5740    0.4450 O   0  0  0  0  0  0  0  0  0  0  0  0
   -6.2580    1.1210   -0.6670 C   0  0  0  0  0  0  0  0  0  0  0  0
   -6.8810    1.8450   -1.4840 O   0  0  0  0  0  0  0  0  0  0  0  0
   -6.2490   -0.3410   -0.9040 C   0  0  0  0  0  0  0  0  0  0  0  0
   -4.9870   -0.8240   -0.7000 O   0  0  0  0  0  0  0  0  0  0  0  0
    2.1210   -0.3040    0.3780 N   0  0  0  0  0  0  0  0  0  0  0  0
    3.2660    0.5360    0.5270 C   0  0  0  0  0  0  0  0  0  0  0  0
    4.1270    0.2320    1.7220 C   0  0  0  0  0  0  0  0  0  0  0  0
    5.2850    1.2160    1.7220 C   0  0  0  0  0  0  0  0  0  0  0  0
    6.0840    0.9310    2.8370 O   0  0  0  0  0  0  0  0  0  0  0  0
    7.1010    1.7660    2.8720 O   0  0  0  0  0  0  0  0  0  0  0  0
  1  2  2  0
  2  3  1  0
  2 18  1  0
  3  4  1  0
  4  5  1  0
  5  6  2  0
  5  9  1  0
  6  7  1  0
  7  8  1  0
  8  9  2  0
  9 10  1  0
 11 10  1  1
 11 12  1  0
 11 17  1  0
 12 13  1  0
 13 14  1  0
 14 15  2  0
 14 16  1  0
 16 17  1  0
 18 19  1  0
 19 20  1  0
 20 21  1  0
 21 22  1  0
 22 23  1  0
M  END
