
     RDKit          3D

 23 23  0  0  0  0  0  0  0  0999 V2000
    6.7250    1.6660    0.0920 C   0  0  0  0  0  0  0  0  0  0  0  0
    6.2440    0.4490   -0.4960 O   0  0  0  0  0  0  0  0  0  0  0  0
    4.9470    0.3060   -0.9120 C   0  0  0  0  0  0  0  0  0  0  0  0
    4.1460    1.2710   -0.7770 O   0  0  0  0  0  0  0  0  0  0  0  0
    4.4250   -0.8880   -1.5030 N   0  0  0  0  0  0  0  0  0  0  0  0
    3.0500   -0.9930   -1.9270 C   0  0  0  0  0  0  0  0  0  0  0  0
    2.1070   -0.7890   -0.7940 C   0  0  0  0  0  0  0  0  0  0  0  0
    2.5290   -0.5550    0.3740 O   0  0  0  0  0  0  0  0  0  0  0  0
    0.7330   -0.8440   -0.9600 O   0  0  0  0  0  0  0  0  0  0  0  0
   -0.1940   -0.6490    0.1220 C   0  0  2  0  0  0  0  0  0  0  0  0
   -0.8090   -1.9090    0.2960 O   0  0  0  0  0  0  0  0  0  0  0  0
   -0.5520   -2.7070    1.4210 C   0  0  0  0  0  0  0  0  0  0  0  0
    0.2470   -2.2600    2.2730 O   0  0  0  0  0  0  0  0  0  0  0  0
   -1.1650   -3.9340    1.5690 O   0  0  0  0  0  0  0  0  0  0  0  0
   -1.1540    0.3680   -0.2520 C   0  0  0  0  0  0  0  0  0  0  0  0
   -1.0180    0.8510   -1.3960 O   0  0  0  0  0  0  0  0  0  0  0  0
   -2.2660    0.9150    0.5260 C   0  0  2  0  0  0  0  0  0  0  0  0
   -1.6370    1.6810    1.6960 C   0  0  0  0  0  0  0  0  0  0  0  0
   -3.2200   -0.0630    1.1270 C   0  0  0  0  0  0  0  0  0  0  0  0
   -4.2780   -0.5480    0.1640 C   0  0  0  0  0  0  0  0  0  0  0  0
   -4.9090    0.7260   -0.4180 C   0  0  0  0  0  0  0  0  0  0  0  0
   -3.7720    1.3860   -1.1700 C   0  0  0  0  0  0  0  0  0  0  0  0
   -2.9050    1.8980   -0.2190 O   0  0  0  0  0  0  0  0  0  0  0  0
  1  2  1  0
  2  3  1  0
  3  4  2  0
  3  5  1  0
  5  6  1  0
  6  7  1  0
  7  8  2  0
  7  9  1  0
 10  9  1  6
 10 11  1  0
 10 15  1  0
 11 12  1  0
 12 13  2  0
 12 14  1  0
 15 16  2  0
 15 17  1  0
 17 18  1  1
 17 19  1  0
 17 23  1  0
 19 20  1  0
 20 21  1  0
 21 22  1  0
 22 23  1  0
M  END
