
     RDKit          3D

 22 23  0  0  0  0  0  0  0  0999 V2000
    2.3490   -2.1850   -0.6850 C   0  0  0  0  0  0  0  0  0  0  0  0
    3.5670   -1.7430   -0.7560 C   0  0  0  0  0  0  0  0  0  0  0  0
    4.0050   -0.4050   -0.3870 C   0  0  0  0  0  0  0  0  0  0  0  0
    5.3130   -0.1790   -0.5690 C   0  0  0  0  0  0  0  0  0  0  0  0
    5.9590    1.0870   -0.2680 C   0  0  0  0  0  0  0  0  0  0  0  0
    5.1210    2.1240    0.3890 C   0  0  0  0  0  0  0  0  0  0  0  0
    3.9920    1.4700    1.1890 C   0  0  0  0  0  0  0  0  0  0  0  0
    3.1930    0.6820    0.1540 C   0  0  2  0  0  0  0  0  0  0  0  0
    1.9670    0.2370    0.7290 N   0  0  0  0  0  0  0  0  0  0  0  0
    0.7040    0.8240    0.3540 C   0  0  0  0  0  0  0  0  0  0  0  0
    0.7450    1.7240   -0.4930 O   0  0  0  0  0  0  0  0  0  0  0  0
   -0.5020    0.3820    0.9350 N   0  0  0  0  0  0  0  0  0  0  0  0
   -1.7780    1.0240    0.5230 C   0  0  0  0  0  0  0  0  0  0  0  0
   -2.8920    0.4300    1.2400 C   0  0  0  0  0  0  0  0  0  0  0  0
   -3.9750   -0.1890    0.9140 C   0  0  0  0  0  0  0  0  0  0  0  0
   -4.8580   -0.6400    2.0310 C   0  0  0  0  0  0  0  0  0  0  0  0
   -5.9440   -1.2520    1.7590 N   0  0  0  0  0  0  0  0  0  0  0  0
   -6.3620   -1.5270    0.4980 O   0  0  0  0  0  0  0  0  0  0  0  0
   -5.6350   -1.1630   -0.6200 C   0  0  0  0  0  0  0  0  0  0  0  0
   -6.1160   -1.4780   -1.9720 C   0  0  0  0  0  0  0  0  0  0  0  0
   -4.4710   -0.5100   -0.4040 C   0  0  0  0  0  0  0  0  0  0  0  0
   -3.7120   -0.1230   -1.6190 C   0  0  0  0  0  0  0  0  0  0  0  0
  1  2  2  0
  2  3  1  0
  3  4  2  0
  3  8  1  0
  4  5  1  0
  5  6  1  0
  6  7  1  0
  7  8  1  0
  8  9  1  1
  9 10  1  0
 10 11  2  0
 10 12  1  0
 12 13  1  0
 13 14  1  0
 14 15  2  3
 15 16  1  0
 15 21  1  0
 16 17  2  0
 17 18  1  0
 18 19  1  0
 19 20  1  0
 19 21  2  0
 21 22  1  0
M  END
