
     RDKit          3D

  6  5  0  0  0  0  0  0  0  0999 V2000
   -2.2920    0.0320    0.4480 C   0  0  0  0  0  0  0  0  0  0  0  0
   -1.2070    0.1170   -0.5010 N   0  0  0  0  0  0  0  0  0  0  0  0
   -0.0280   -0.6320   -0.2640 C   0  0  0  0  0  0  0  0  0  0  0  0
    1.1660   -0.0940   -0.1210 C   0  0  0  0  0  0  0  0  0  0  0  0
    1.2820    1.3240   -0.2070 N   0  0  0  0  0  0  0  0  0  0  0  0
    2.2740   -0.9300    0.1110 N   0  0  0  0  0  0  0  0  0  0  0  0
  1  2  1  0
  2  3  1  0
  3  4  2  3
  4  5  1  0
  4  6  1  0
M  END
