
     RDKit          3D

  6  6  0  0  0  0  0  0  0  0999 V2000
    2.0440   -0.2750   -0.1660 N   0  0  0  0  0  0  0  0  0  0  0  0
    0.7660   -0.4310   -0.0910 C   0  0  0  0  0  0  0  0  0  0  0  0
   -0.2240    0.6420    0.0710 C   0  0  0  0  0  0  0  0  0  0  0  0
   -1.4090    0.0640    0.1040 C   0  0  0  0  0  0  0  0  0  0  0  0
   -1.2200   -1.3330   -0.0300 N   0  0  0  0  0  0  0  0  0  0  0  0
    0.0000   -1.6240   -0.1400 N   0  0  0  0  0  0  0  0  0  0  0  0
  1  2  2  0
  2  3  1  0
  2  6  1  0
  3  4  2  0
  4  5  1  0
  5  6  2  0
M  END
