
     RDKit          3D

 22 22  0  0  0  0  0  0  0  0999 V2000
    3.9430   -0.5480   -1.4380 C   0  0  0  0  0  0  0  0  0  0  0  0
    3.1960   -1.4560   -0.4940 C   0  0  0  0  0  0  0  0  0  0  0  0
    3.2860   -0.9250    0.8310 N   0  0  0  0  0  0  0  0  0  0  0  0
    4.5950   -1.0920    1.4500 C   0  0  0  0  0  0  0  0  0  0  0  0
    4.8150   -0.7110    2.6800 C   0  0  0  0  0  0  0  0  0  0  0  0
    3.7350   -0.1130    3.4370 C   0  0  0  0  0  0  0  0  0  0  0  0
    2.5390    0.0610    2.9220 C   0  0  0  0  0  0  0  0  0  0  0  0
    2.2160   -0.3500    1.5150 C   0  0  0  0  0  0  0  0  0  0  0  0
    1.0760   -0.0400    1.0080 C   0  0  0  0  0  0  0  0  0  0  0  0
    0.4860   -0.1200   -0.2870 C   0  0  0  0  0  0  0  0  0  0  0  0
   -0.7880    0.2950   -0.4570 C   0  0  0  0  0  0  0  0  0  0  0  0
   -1.4390    0.2350   -1.7510 C   0  0  0  0  0  0  0  0  0  0  0  0
   -2.6670   -0.6200   -1.8380 C   0  0  1  0  0  0  0  0  0  0  0  0
   -2.3820   -2.0650   -1.4790 C   0  0  0  0  0  0  0  0  0  0  0  0
   -3.8380   -0.1470   -1.0500 C   0  0  0  0  0  0  0  0  0  0  0  0
   -3.0940   -0.6670   -3.3150 C   0  0  0  0  0  0  0  0  0  0  0  0
   -1.4230    0.7890    0.6880 N   0  0  0  0  0  0  0  0  0  0  0  0
   -1.8230    2.1230    0.7610 C   0  0  0  0  0  0  0  0  0  0  0  0
   -1.5610    2.8200   -0.3480 O   0  0  0  0  0  0  0  0  0  0  0  0
   -2.3900    2.9090    1.6180 N   0  0  0  0  0  0  0  0  0  0  0  0
   -2.9490    3.2710    2.7830 C   0  0  0  0  0  0  0  0  0  0  0  0
   -3.2290    4.5510    2.7040 O   0  0  0  0  0  0  0  0  0  0  0  0
  1  2  1  0
  2  3  1  0
  3  4  1  0
  3  8  1  0
  4  5  2  0
  5  6  1  0
  6  7  2  0
  7  8  1  0
  8  9  2  3
  9 10  1  0
 10 11  2  3
 11 12  1  0
 11 17  1  0
 12 13  1  0
 13 14  1  1
 13 15  1  0
 13 16  1  0
 17 18  1  0
 18 19  2  0
 18 20  1  0
 20 21  1  0
 21 22  2  0
M  END
