
     RDKit          3D

 23 22  0  0  0  0  0  0  0  0999 V2000
    4.5870   -0.1820    1.2180 N   0  0  0  0  0  0  0  0  0  0  0  0
    4.5690   -0.3770   -0.1790 C   0  0  1  0  0  0  0  0  0  0  0  0
    3.2150   -0.0020   -0.7850 C   0  0  0  0  0  0  0  0  0  0  0  0
    2.1710   -0.8640   -0.1100 C   0  0  0  0  0  0  0  0  0  0  0  0
    0.8430   -0.7520   -0.7530 C   0  0  0  0  0  0  0  0  0  0  0  0
    0.7220   -0.6720   -2.0190 O   0  0  0  0  0  0  0  0  0  0  0  0
   -0.3230   -0.7430    0.0360 N   0  0  0  0  0  0  0  0  0  0  0  0
   -1.6570   -0.6950   -0.6950 C   0  0  1  0  0  0  0  0  0  0  0  0
   -2.3580   -1.8360    0.0040 C   0  0  0  0  0  0  0  0  0  0  0  0
   -3.8860   -2.3120   -0.2710 S   0  0  2  0  0  0  0  0  0  0  0  0
   -5.0460   -1.2530    0.0070 O   0  0  0  0  0  0  0  0  0  0  0  0
   -4.0760   -3.0870    1.5880 O   0  0  0  0  0  0  0  0  0  0  0  0
   -4.2360   -3.5910   -0.9500 O   0  0  0  0  0  0  0  0  0  0  0  0
   -2.2510    0.6070   -0.5440 C   0  0  0  0  0  0  0  0  0  0  0  0
   -3.4770    0.6540   -0.0830 O   0  0  0  0  0  0  0  0  0  0  0  0
   -1.6980    1.8700   -0.8290 N   0  0  0  0  0  0  0  0  0  0  0  0
   -2.2840    3.1340   -0.8200 C   0  0  0  0  0  0  0  0  0  0  0  0
   -3.1790    3.5370    0.2830 C   0  0  0  0  0  0  0  0  0  0  0  0
   -3.5280    2.8920    1.2730 O   0  0  0  0  0  0  0  0  0  0  0  0
   -3.7080    4.8570    0.1640 O   0  0  0  0  0  0  0  0  0  0  0  0
    5.5460    0.4440   -0.9090 C   0  0  0  0  0  0  0  0  0  0  0  0
    5.5040    0.3200   -2.1800 O   0  0  0  0  0  0  0  0  0  0  0  0
    6.4610    1.3120   -0.3490 O   0  0  0  0  0  0  0  0  0  0  0  0
  2  1  1  1
  2  3  1  0
  2 21  1  0
  3  4  1  0
  4  5  1  0
  5  6  2  0
  5  7  1  0
  7  8  1  0
  8  9  1  1
  8 14  1  0
  9 10  1  0
 10 11  1  1
 10 12  1  0
 10 13  1  0
 14 15  2  0
 14 16  1  0
 16 17  1  0
 17 18  1  0
 18 19  2  0
 18 20  1  0
 21 22  2  0
 21 23  1  0
M  CHG  1   1   1
M  END
