
     RDKit          3D

 20 20  0  0  0  0  0  0  0  0999 V2000
   -5.1370   -1.5980   -0.8250 C   0  0  0  0  0  0  0  0  0  0  0  0
   -3.9640   -1.8860   -0.0000 N   0  0  0  0  0  0  0  0  0  0  0  0
   -2.6960   -1.3300   -0.2090 C   0  0  0  0  0  0  0  0  0  0  0  0
   -2.2980   -0.1180    0.1430 C   0  0  0  0  0  0  0  0  0  0  0  0
   -0.9260    0.2130   -0.1920 C   0  0  0  0  0  0  0  0  0  0  0  0
   -0.3850    1.3620    0.0710 C   0  0  0  0  0  0  0  0  0  0  0  0
    0.9990    1.7120   -0.2580 C   0  0  0  0  0  0  0  0  0  0  0  0
    1.4800    2.8690    0.0180 O   0  0  0  0  0  0  0  0  0  0  0  0
    1.8300    0.7670   -0.8950 N   0  0  0  0  0  0  0  0  0  0  0  0
    3.1450    1.0160   -1.2680 N   0  0  0  0  0  0  0  0  0  0  0  0
    4.2140    0.3660   -0.6560 C   0  0  0  0  0  0  0  0  0  0  0  0
    4.2560    0.1550    0.6950 C   0  0  0  0  0  0  0  0  0  0  0  0
    5.3280   -0.5180    1.3040 C   0  0  0  0  0  0  0  0  0  0  0  0
    6.3410   -0.9600    0.4760 C   0  0  0  0  0  0  0  0  0  0  0  0
    6.3040   -0.7520   -0.8770 C   0  0  0  0  0  0  0  0  0  0  0  0
    5.2420   -0.0880   -1.4510 C   0  0  0  0  0  0  0  0  0  0  0  0
   -3.1760    0.7550    0.8030 C   0  0  0  0  0  0  0  0  0  0  0  0
   -2.9610    1.9000    1.1920 O   0  0  0  0  0  0  0  0  0  0  0  0
   -4.4940    0.2790    1.0740 O   0  0  0  0  0  0  0  0  0  0  0  0
   -5.4320    1.0750    1.7250 C   0  0  0  0  0  0  0  0  0  0  0  0
  1  2  1  0
  2  3  1  0
  3  4  2  3
  4  5  1  0
  4 17  1  0
  5  6  2  3
  6  7  1  0
  7  8  2  0
  7  9  1  0
  9 10  1  0
 10 11  1  0
 11 12  2  0
 11 16  1  0
 12 13  1  0
 13 14  2  0
 14 15  1  0
 15 16  2  0
 17 18  2  0
 17 19  1  0
 19 20  1  0
M  END
