
     RDKit          3D

 20 20  0  0  0  0  0  0  0  0999 V2000
    5.3350    0.3080   -1.6100 C   0  0  0  0  0  0  0  0  0  0  0  0
    3.9080    0.6550   -1.3780 C   0  0  0  0  0  0  0  0  0  0  0  0
    3.1340   -0.4800   -0.7130 C   0  0  2  0  0  0  0  0  0  0  0  0
    1.7930    0.0250   -0.5760 N   0  0  0  0  0  0  0  0  0  0  0  0
    0.7500   -0.5990   -1.2080 C   0  0  0  0  0  0  0  0  0  0  0  0
    1.0350   -1.6370   -1.9120 O   0  0  0  0  0  0  0  0  0  0  0  0
   -0.5600   -0.3660   -1.2630 N   0  0  0  0  0  0  0  0  0  0  0  0
   -1.8800   -0.0700   -1.2740 C   0  0  0  0  0  0  0  0  0  0  0  0
   -2.4930   -0.9480   -2.0140 O   0  0  0  0  0  0  0  0  0  0  0  0
   -2.5280    0.9450   -0.6520 N   0  0  0  0  0  0  0  0  0  0  0  0
   -3.9580    1.1160   -0.7630 C   0  0  0  0  0  0  0  0  0  0  0  0
   -4.6440   -0.0780   -0.1850 C   0  0  0  0  0  0  0  0  0  0  0  0
   -6.1350    0.1540   -0.3180 C   0  0  0  0  0  0  0  0  0  0  0  0
   -6.5180    1.2850    0.3420 O   0  0  0  0  0  0  0  0  0  0  0  0
   -6.2770    1.2950    1.6870 C   0  0  0  0  0  0  0  0  0  0  0  0
    3.6320   -0.7950    0.6380 C   0  0  0  0  0  0  0  0  0  0  0  0
    4.1110   -1.9520    1.0300 C   0  0  0  0  0  0  0  0  0  0  0  0
    4.5180   -1.8930    2.4720 C   0  0  0  0  0  0  0  0  0  0  0  0
    4.1880   -0.5050    2.8300 C   0  0  0  0  0  0  0  0  0  0  0  0
    3.6730    0.1240    1.7580 C   0  0  0  0  0  0  0  0  0  0  0  0
  1  2  1  0
  3  2  1  1
  3  4  1  0
  3 16  1  0
  4  5  1  0
  5  6  2  0
  5  7  1  0
  7  8  1  0
  8  9  2  0
  8 10  1  0
 10 11  1  0
 11 12  1  0
 12 13  1  0
 13 14  1  0
 14 15  1  0
 16 17  2  0
 16 20  1  0
 17 18  1  0
 18 19  1  0
 19 20  2  0
M  END
