
     RDKit          3D

 20 20  0  0  0  0  0  0  0  0999 V2000
   -6.2600    1.8500   -0.2830 C   0  0  0  0  0  0  0  0  0  0  0  0
   -5.4770    0.5860   -0.5040 C   0  0  0  0  0  0  0  0  0  0  0  0
   -4.0570    0.7580   -0.1620 C   0  0  0  0  0  0  0  0  0  0  0  0
   -3.6440    1.8670    0.2560 O   0  0  0  0  0  0  0  0  0  0  0  0
   -3.1120   -0.3340   -0.2980 C   0  0  0  0  0  0  0  0  0  0  0  0
   -1.8200   -0.1550    0.0190 C   0  0  0  0  0  0  0  0  0  0  0  0
   -0.9230   -1.2950   -0.1410 C   0  0  0  0  0  0  0  0  0  0  0  0
    0.3800   -1.3090    0.1210 C   0  0  0  0  0  0  0  0  0  0  0  0
    1.1660   -0.1730    0.6230 C   0  0  0  0  0  0  0  0  0  0  0  0
    0.5570    0.9340    0.8720 O   0  0  0  0  0  0  0  0  0  0  0  0
    2.5420   -0.1580    0.8630 N   0  0  0  0  0  0  0  0  0  0  0  0
    3.4920   -1.1910    0.6740 C   0  0  0  0  0  0  0  0  0  0  0  0
    4.1030   -1.2070   -0.7180 C   0  0  0  0  0  0  0  0  0  0  0  0
    3.0940    1.1150    1.3960 C   0  0  0  0  0  0  0  0  0  0  0  0
    3.4990    2.0190    0.2920 C   0  0  0  0  0  0  0  0  0  0  0  0
    4.0580    3.2920    0.5800 N   0  0  0  0  0  0  0  0  0  0  0  0
    3.3660    1.7010   -0.9150 O   0  0  0  0  0  0  0  0  0  0  0  0
    0.8620   -2.6770   -0.1780 C   0  0  0  0  0  0  0  0  0  0  0  0
   -0.2990   -3.3770   -0.6490 N   0  0  0  0  0  0  0  0  0  0  0  0
   -1.3190   -2.6290   -0.6350 C   0  0  0  0  0  0  0  0  0  0  0  0
  1  2  1  0
  2  3  1  0
  3  4  2  0
  3  5  1  0
  5  6  2  3
  6  7  1  0
  7  8  2  0
  7 20  1  0
  8  9  1  0
  8 18  1  0
  9 10  2  0
  9 11  1  0
 11 12  1  0
 11 14  1  0
 12 13  1  0
 14 15  1  0
 15 16  1  0
 15 17  2  0
 18 19  1  0
 19 20  2  0
M  END
