
     RDKit          3D

  9  9  0  0  0  0  0  0  0  0999 V2000
    2.9570   -0.1710    0.4440 O   0  0  0  0  0  0  0  0  0  0  0  0
    1.7630   -0.9050    0.4670 C   0  0  0  0  0  0  0  0  0  0  0  0
    0.7550   -0.1960   -0.4380 C   0  0  2  0  0  0  0  0  0  0  0  0
    0.4990    1.1430    0.0150 N   0  0  0  0  0  0  0  0  0  0  0  0
   -0.8780    1.4340   -0.3560 C   0  0  0  0  0  0  0  0  0  0  0  0
   -1.5690    0.1430    0.0310 C   0  0  2  0  0  0  0  0  0  0  0  0
   -1.7760    0.0910    1.4070 O   0  0  0  0  0  0  0  0  0  0  0  0
   -0.5640   -0.9470   -0.3570 C   0  0  1  0  0  0  0  0  0  0  0  0
   -0.9230   -1.4740   -1.5830 O   0  0  0  0  0  0  0  0  0  0  0  0
  1  2  1  0
  3  2  1  1
  3  4  1  0
  3  8  1  0
  4  5  1  0
  5  6  1  0
  6  7  1  1
  6  8  1  0
  8  9  1  6
M  CHG  1   4   1
M  END
