
     RDKit          3D

 12 12  0  0  0  0  0  0  0  0999 V2000
   -5.0290    0.1140    0.9460 C   0  0  0  0  0  0  0  0  0  0  0  0
   -3.9540   -0.2230   -0.0600 C   0  0  0  0  0  0  0  0  0  0  0  0
   -2.6560    0.0050    0.4760 O   0  0  0  0  0  0  0  0  0  0  0  0
   -1.5710   -0.2620   -0.3410 C   0  0  0  0  0  0  0  0  0  0  0  0
   -1.7680   -0.6950   -1.5200 O   0  0  0  0  0  0  0  0  0  0  0  0
   -0.1650   -0.0520    0.1390 C   0  0  0  0  0  0  0  0  0  0  0  0
    0.8200   -0.4220   -0.9540 C   0  0  0  0  0  0  0  0  0  0  0  0
    2.2080   -0.2100   -0.4680 C   0  0  0  0  0  0  0  0  0  0  0  0
    3.0840    0.6130   -1.0170 C   0  0  0  0  0  0  0  0  0  0  0  0
    4.3380    0.5270   -0.2340 C   0  0  0  0  0  0  0  0  0  0  0  0
    3.8530   -0.0400    1.0810 C   0  0  0  0  0  0  0  0  0  0  0  0
    2.7580   -0.8520    0.6260 O   0  0  0  0  0  0  0  0  0  0  0  0
  1  2  1  0
  2  3  1  0
  3  4  1  0
  4  5  2  0
  4  6  1  0
  6  7  1  0
  7  8  1  0
  8  9  2  0
  8 12  1  0
  9 10  1  0
 10 11  1  0
 11 12  1  0
M  END
