
     RDKit          3D

 39 42  0  0  0  0  0  0  0  0999 V2000
    6.8550   -1.9650    0.8270 C   0  0  0  0  0  0  0  0  0  0  0  0
    6.0580   -1.5180    0.0570 C   0  0  0  0  0  0  0  0  0  0  0  0
    4.6370   -1.8980   -0.1090 C   0  0  0  0  0  0  0  0  0  0  0  0
    3.7740   -1.3440   -0.9670 C   0  0  0  0  0  0  0  0  0  0  0  0
    2.3810   -1.8440   -1.0060 C   0  0  0  0  0  0  0  0  0  0  0  0
    1.3000   -0.9810   -0.7620 N   0  0  0  0  0  0  0  0  0  0  0  0
    1.1200   -0.0420    0.2570 C   0  0  0  0  0  0  0  0  0  0  0  0
    2.1600    0.5420    0.9770 C   0  0  0  0  0  0  0  0  0  0  0  0
    1.9440    1.5080    1.9440 C   0  0  0  0  0  0  0  0  0  0  0  0
    0.6780    1.9350    2.2390 C   0  0  0  0  0  0  0  0  0  0  0  0
    0.4660    2.8720    3.1860 F   0  0  0  0  0  0  0  0  0  0  0  0
   -0.3930    1.3900    1.5570 C   0  0  0  0  0  0  0  0  0  0  0  0
   -0.1590    0.4350    0.6020 C   0  0  0  0  0  0  0  0  0  0  0  0
   -1.5210   -0.3190   -0.2150 S   0  0  1  0  0  0  0  0  0  0  0  0
   -1.3970   -0.0640   -1.7160 O   0  0  0  0  0  0  0  0  0  0  0  0
   -1.3780   -1.7800    0.0070 O   0  0  0  0  0  0  0  0  0  0  0  0
   -3.0740    0.2510    0.3420 C   0  0  2  0  0  0  0  0  0  0  0  0
   -4.1950   -0.6830   -0.1240 C   0  0  0  0  0  0  0  0  0  0  0  0
   -4.1230   -2.0610    0.3250 C   0  0  0  0  0  0  0  0  0  0  0  0
   -3.6200   -3.0690   -0.4370 C   0  0  0  0  0  0  0  0  0  0  0  0
   -3.5240   -4.4000   -0.0150 C   0  0  0  0  0  0  0  0  0  0  0  0
   -3.9780   -4.6820    1.2630 C   0  0  0  0  0  0  0  0  0  0  0  0
   -3.9070   -5.9710    1.7310 F   0  0  0  0  0  0  0  0  0  0  0  0
   -4.4800   -3.6660    2.0170 C   0  0  0  0  0  0  0  0  0  0  0  0
   -4.5580   -2.3990    1.5860 N   0  0  0  0  0  0  0  0  0  0  0  0
   -3.4290    1.6250   -0.0500 C   0  0  0  0  0  0  0  0  0  0  0  0
   -3.8030    2.5450    0.8970 C   0  0  0  0  0  0  0  0  0  0  0  0
   -4.1620    3.8330    0.5490 C   0  0  0  0  0  0  0  0  0  0  0  0
   -4.1400    4.1860   -0.7810 C   0  0  0  0  0  0  0  0  0  0  0  0
   -4.5320    5.5810   -1.1720 C   0  0  2  0  0  0  0  0  0  0  0  0
   -3.5290    6.4200   -0.7070 F   0  0  0  0  0  0  0  0  0  0  0  0
   -5.7400    5.9240   -0.6470 F   0  0  0  0  0  0  0  0  0  0  0  0
   -3.7620    3.2580   -1.7360 C   0  0  0  0  0  0  0  0  0  0  0  0
   -3.4190    2.0110   -1.3370 N   0  0  0  0  0  0  0  0  0  0  0  0
    4.3070   -0.2850   -1.7930 C   0  0  0  0  0  0  0  0  0  0  0  0
    3.4670    0.3250   -2.6840 F   0  0  0  0  0  0  0  0  0  0  0  0
    5.5630    0.1250   -1.7220 C   0  0  0  0  0  0  0  0  0  0  0  0
    6.4890   -0.4250   -0.8410 N   0  0  0  0  0  0  0  0  0  0  0  0
    7.8870    0.0130   -0.7450 C   0  0  0  0  0  0  0  0  0  0  0  0
  1  2  2  0
  2  3  1  0
  2 38  1  0
  3  4  2  0
  4  5  1  0
  4 35  1  0
  5  6  1  0
  6  7  1  0
  7  8  2  0
  7 13  1  0
  8  9  1  0
  9 10  2  0
 10 11  1  0
 10 12  1  0
 12 13  2  0
 14 13  1  1
 14 15  2  0
 14 16  2  0
 14 17  1  0
 17 18  1  6
 17 26  1  0
 18 19  1  0
 19 20  2  0
 19 25  1  0
 20 21  1  0
 21 22  2  0
 22 23  1  0
 22 24  1  0
 24 25  2  0
 26 27  2  0
 26 34  1  0
 27 28  1  0
 28 29  2  0
 29 30  1  0
 29 33  1  0
 30 31  1  1
 30 32  1  0
 33 34  2  0
 35 36  1  0
 35 37  2  0
 37 38  1  0
 38 39  1  0
M  END
