
     RDKit          3D

 39 43  0  0  0  0  0  0  0  0999 V2000
    1.0930    1.0660   -0.0650 O   0  0  0  0  0  0  0  0  0  0  0  0
    1.1310    1.3090   -1.2890 C   0  0  0  0  0  0  0  0  0  0  0  0
    2.3260    1.9320   -1.7930 N   0  0  0  0  0  0  0  0  0  0  0  0
    3.4090    2.2580   -0.9280 C   0  0  0  0  0  0  0  0  0  0  0  0
    4.2400    1.0950   -0.5250 C   0  0  0  0  0  0  0  0  0  0  0  0
    4.5980    0.0930   -1.4050 C   0  0  0  0  0  0  0  0  0  0  0  0
    5.3790   -0.9630   -0.9740 C   0  0  0  0  0  0  0  0  0  0  0  0
    5.7410   -1.9610   -1.8330 F   0  0  0  0  0  0  0  0  0  0  0  0
    5.8260   -1.0600    0.3310 C   0  0  0  0  0  0  0  0  0  0  0  0
    5.4740   -0.0570    1.2360 C   0  0  0  0  0  0  0  0  0  0  0  0
    4.6830    0.9980    0.7640 C   0  0  0  0  0  0  0  0  0  0  0  0
    6.0550   -0.3780    2.5240 C   0  0  0  0  0  0  0  0  0  0  0  0
    5.7830    0.1710    3.6070 O   0  0  0  0  0  0  0  0  0  0  0  0
    7.0230   -1.4710    2.3140 C   0  0  0  0  0  0  0  0  0  0  0  0
    6.6220   -2.0090    1.0340 N   0  0  0  0  0  0  0  0  0  0  0  0
    0.0500    0.9890   -2.1430 N   0  0  0  0  0  0  0  0  0  0  0  0
   -1.1260    0.3860   -1.5710 C   0  0  0  0  0  0  0  0  0  0  0  0
   -1.3990   -0.8290   -1.9340 C   0  0  0  0  0  0  0  0  0  0  0  0
   -2.5170   -1.6640   -1.5210 C   0  0  0  0  0  0  0  0  0  0  0  0
   -3.8320   -1.2980   -1.6700 C   0  0  0  0  0  0  0  0  0  0  0  0
   -4.8760   -2.1180   -1.2330 C   0  0  0  0  0  0  0  0  0  0  0  0
   -4.6220   -3.3430   -0.6280 C   0  0  0  0  0  0  0  0  0  0  0  0
   -3.3070   -3.7160   -0.4770 C   0  0  0  0  0  0  0  0  0  0  0  0
   -2.2820   -2.9020   -0.9100 C   0  0  0  0  0  0  0  0  0  0  0  0
   -3.3020   -5.0550    0.1920 C   0  0  0  0  0  0  0  0  0  0  0  0
   -4.7330   -5.4690    0.2870 C   0  0  0  0  0  0  0  0  0  0  0  0
   -5.5050   -4.3300   -0.1120 N   0  0  0  0  0  0  0  0  0  0  0  0
   -1.9060    1.2080   -0.6340 C   0  0  0  0  0  0  0  0  0  0  0  0
   -2.9100    0.7220   -0.1010 O   0  0  0  0  0  0  0  0  0  0  0  0
   -1.5060    2.5310   -0.3580 N   0  0  0  0  0  0  0  0  0  0  0  0
   -2.1590    3.4020    0.5130 C   0  0  0  0  0  0  0  0  0  0  0  0
   -3.2940    3.0840    1.1940 C   0  0  0  0  0  0  0  0  0  0  0  0
   -3.8940    4.0150    2.0490 C   0  0  0  0  0  0  0  0  0  0  0  0
   -5.0210    3.6440    2.7010 F   0  0  0  0  0  0  0  0  0  0  0  0
   -3.3820    5.2730    2.2430 C   0  0  0  0  0  0  0  0  0  0  0  0
   -2.2250    5.5940    1.5470 C   0  0  0  0  0  0  0  0  0  0  0  0
   -1.7100    6.8470    1.7380 F   0  0  0  0  0  0  0  0  0  0  0  0
   -1.6290    4.6870    0.7060 C   0  0  0  0  0  0  0  0  0  0  0  0
   -0.1630    5.2050   -0.1240 Cl  0  0  0  0  0  0  0  0  0  0  0  0
  1  2  2  0
  2  3  1  0
  2 16  1  0
  3  4  1  0
  4  5  1  0
  5  6  2  0
  5 11  1  0
  6  7  1  0
  7  8  1  0
  7  9  2  0
  9 10  1  0
  9 15  1  0
 10 11  2  0
 10 12  1  0
 12 13  2  0
 12 14  1  0
 14 15  1  0
 16 17  1  0
 17 18  2  3
 17 28  1  0
 18 19  1  0
 19 20  2  0
 19 24  1  0
 20 21  1  0
 21 22  2  0
 22 23  1  0
 22 27  1  0
 23 24  2  0
 23 25  1  0
 25 26  1  0
 26 27  1  0
 28 29  2  0
 28 30  1  0
 30 31  1  0
 31 32  2  0
 31 38  1  0
 32 33  1  0
 33 34  1  0
 33 35  2  0
 35 36  1  0
 36 37  1  0
 36 38  2  0
 38 39  1  0
M  END
