
     RDKit          3D

 39 42  0  0  0  0  0  0  0  0999 V2000
    4.4330    0.0950    1.8380 C   0  0  0  0  0  0  0  0  0  0  0  0
    3.2420    0.0100    0.9520 C   0  0  0  0  0  0  0  0  0  0  0  0
    2.1890   -0.6400    1.1310 N   0  0  0  0  0  0  0  0  0  0  0  0
    1.3040   -0.8770    0.2520 C   0  0  0  0  0  0  0  0  0  0  0  0
    0.0150   -1.5920    0.2910 C   0  0  1  0  0  0  0  0  0  0  0  0
   -0.6820   -1.3780    1.6170 C   0  0  0  0  0  0  0  0  0  0  0  0
   -1.2770   -0.0540    1.8980 C   0  0  0  0  0  0  0  0  0  0  0  0
   -1.5590    0.6820    0.5690 C   0  0  0  0  0  0  0  0  0  0  0  0
   -1.9690   -0.4340   -0.2740 N   0  0  0  0  0  0  0  0  0  0  0  0
   -3.3010   -0.8700   -0.4690 C   0  0  0  0  0  0  0  0  0  0  0  0
   -3.4080   -2.0740   -0.9810 N   0  0  0  0  0  0  0  0  0  0  0  0
   -4.5990   -2.7450   -1.2910 C   0  0  0  0  0  0  0  0  0  0  0  0
   -4.6240   -3.9230   -1.7600 O   0  0  0  0  0  0  0  0  0  0  0  0
   -5.8300   -2.0310   -1.0300 C   0  0  0  0  0  0  0  0  0  0  0  0
   -7.0600   -2.6040   -1.3210 C   0  0  0  0  0  0  0  0  0  0  0  0
   -8.2490   -1.9520   -1.1280 C   0  0  0  0  0  0  0  0  0  0  0  0
   -8.1930   -0.6700   -0.6060 C   0  0  0  0  0  0  0  0  0  0  0  0
   -6.9770   -0.0860   -0.3120 C   0  0  0  0  0  0  0  0  0  0  0  0
   -5.7550   -0.7670   -0.5150 C   0  0  0  0  0  0  0  0  0  0  0  0
   -4.4730   -0.1560   -0.0280 C   0  0  2  0  0  0  0  0  0  0  0  0
   -4.6720    1.2670   -0.0770 C   0  0  0  0  0  0  0  0  0  0  0  0
   -5.0670    1.9750    1.0110 C   0  0  0  0  0  0  0  0  0  0  0  0
   -5.2590    1.2860    2.2720 C   0  0  0  0  0  0  0  0  0  0  0  0
   -5.8080    1.8350    3.2960 O   0  0  0  0  0  0  0  0  0  0  0  0
   -4.5680    2.0580   -1.3500 C   0  0  1  0  0  0  0  0  0  0  0  0
   -3.4430    2.8710   -1.2420 F   0  0  0  0  0  0  0  0  0  0  0  0
   -4.4020    1.1540   -2.3940 F   0  0  0  0  0  0  0  0  0  0  0  0
   -5.6450    2.8640   -1.5770 F   0  0  0  0  0  0  0  0  0  0  0  0
   -0.8550   -1.1390   -0.8870 C   0  0  0  0  0  0  0  0  0  0  0  0
    2.0190   -0.0290   -1.2050 S   0  0  0  0  0  0  0  0  0  0  0  0
    3.4230    0.5300   -0.4290 C   0  0  0  0  0  0  0  0  0  0  0  0
    4.5590    1.4380   -0.6250 C   0  0  0  0  0  0  0  0  0  0  0  0
    5.5210    1.0230   -1.6380 N   0  0  0  0  0  0  0  0  0  0  0  0
    6.8210    1.2940   -0.8590 C   0  0  0  0  0  0  0  0  0  0  0  0
    7.4190   -0.0990   -0.7940 C   0  0  0  0  0  0  0  0  0  0  0  0
    8.6260   -0.1350    0.0960 C   0  0  0  0  0  0  0  0  0  0  0  0
    9.5880    0.9940   -0.2540 C   0  0  1  0  0  0  0  0  0  0  0  0
    9.9760    0.9280   -1.5450 F   0  0  0  0  0  0  0  0  0  0  0  0
    9.1040    2.1820    0.2100 F   0  0  0  0  0  0  0  0  0  0  0  0
  1  2  1  0
  2  3  1  0
  2 31  2  0
  3  4  2  0
  5  4  1  1
  4 30  1  0
  5  6  1  0
  5 29  1  0
  6  7  1  0
  7  8  1  0
  8  9  1  0
  9 10  1  0
  9 29  1  0
 10 11  2  0
 10 20  1  0
 11 12  1  0
 12 13  2  0
 12 14  1  0
 14 15  2  0
 14 19  1  0
 15 16  1  0
 16 17  2  0
 17 18  1  0
 18 19  2  0
 19 20  1  0
 20 21  1  6
 21 22  2  3
 21 25  1  0
 22 23  1  0
 23 24  2  0
 25 26  1  1
 25 27  1  0
 25 28  1  0
 30 31  1  0
 31 32  1  0
 32 33  1  0
 33 34  1  0
 34 35  1  0
 35 36  1  0
 36 37  1  0
 37 38  1  6
 37 39  1  0
M  END
