
     RDKit          3D

 31 33  0  0  0  0  0  0  0  0999 V2000
    4.0460    2.8800   -0.1530 C   0  0  0  0  0  0  0  0  0  0  0  0
    3.4110    1.6900    0.2450 O   0  0  0  0  0  0  0  0  0  0  0  0
    2.1330    1.3810   -0.2260 C   0  0  0  0  0  0  0  0  0  0  0  0
    1.4840    2.2450   -1.0930 C   0  0  0  0  0  0  0  0  0  0  0  0
    0.2250    1.9280   -1.5460 C   0  0  0  0  0  0  0  0  0  0  0  0
   -0.3890    0.7640   -1.1430 C   0  0  0  0  0  0  0  0  0  0  0  0
   -1.7430    0.3790   -1.5070 C   0  0  0  0  0  0  0  0  0  0  0  0
   -2.0100   -0.2210   -2.6900 C   0  0  0  0  0  0  0  0  0  0  0  0
   -0.9940   -0.4990   -3.6940 C   0  0  0  0  0  0  0  0  0  0  0  0
   -0.1770   -0.7250   -4.4760 N   0  0  0  0  0  0  0  0  0  0  0  0
   -3.3010   -0.6100   -3.1020 C   0  0  0  0  0  0  0  0  0  0  0  0
   -3.5500   -1.2360   -4.3340 N   0  0  0  0  0  0  0  0  0  0  0  0
   -4.2880   -0.3470   -2.2380 N   0  0  0  0  0  0  0  0  0  0  0  0
   -4.0140    0.2360   -1.0970 C   0  0  0  0  0  0  0  0  0  0  0  0
   -5.1270    0.7230    0.2610 S   0  0  0  0  0  0  0  0  0  0  0  0
   -3.9240    1.4010    1.3110 C   0  0  0  0  0  0  0  0  0  0  0  0
   -4.1270    1.9990    2.6260 C   0  0  0  0  0  0  0  0  0  0  0  0
   -5.4480    2.0800    3.1770 N   0  0  0  0  0  0  0  0  0  0  0  0
   -3.1430    2.4280    3.2410 O   0  0  0  0  0  0  0  0  0  0  0  0
   -2.7190    1.2330    0.5910 C   0  0  0  0  0  0  0  0  0  0  0  0
   -1.4870    1.7100    1.2260 N   0  0  0  0  0  0  0  0  0  0  0  0
   -2.8190    0.6500   -0.6000 C   0  0  0  0  0  0  0  0  0  0  0  0
    0.2790   -0.0800   -0.2810 C   0  0  0  0  0  0  0  0  0  0  0  0
    1.5450    0.2130    0.1900 C   0  0  0  0  0  0  0  0  0  0  0  0
    2.2370   -0.6140    1.0540 O   0  0  0  0  0  0  0  0  0  0  0  0
    1.7530   -1.8550    1.5120 C   0  0  0  0  0  0  0  0  0  0  0  0
    2.7290   -2.5220    2.4420 C   0  0  0  0  0  0  0  0  0  0  0  0
    4.0430   -2.7450    1.7250 C   0  0  0  0  0  0  0  0  0  0  0  0
    3.8930   -3.6000    0.5330 C   0  0  0  0  0  0  0  0  0  0  0  0
    3.4010   -3.1210   -0.5080 O   0  0  0  0  0  0  0  0  0  0  0  0
    4.2920   -4.9370    0.5500 O   0  0  0  0  0  0  0  0  0  0  0  0
  1  2  1  0
  2  3  1  0
  3  4  2  0
  3 24  1  0
  4  5  1  0
  5  6  2  0
  6  7  1  0
  6 23  1  0
  7  8  2  0
  7 22  1  0
  8  9  1  0
  8 11  1  0
  9 10  3  0
 11 12  1  0
 11 13  2  0
 13 14  1  0
 14 15  1  0
 14 22  2  0
 15 16  1  0
 16 17  1  0
 16 20  2  0
 17 18  1  0
 17 19  2  0
 20 21  1  0
 20 22  1  0
 23 24  2  0
 24 25  1  0
 25 26  1  0
 26 27  1  0
 27 28  1  0
 28 29  1  0
 29 30  2  0
 29 31  1  0
M  END
