
     RDKit          3D

 12 12  0  0  0  0  0  0  0  0999 V2000
    3.1200    0.6940   -0.3880 C   0  0  0  0  0  0  0  0  0  0  0  0
    2.0280   -0.0120   -0.9330 O   0  0  0  0  0  0  0  0  0  0  0  0
    1.4310   -0.7700    0.0390 C   0  0  2  0  0  0  0  0  0  0  0  0
    1.5150   -2.1430   -0.2540 O   0  0  0  0  0  0  0  0  0  0  0  0
   -0.0250   -0.4490    0.2420 C   0  0  2  0  0  0  0  0  0  0  0  0
   -0.5660   -1.2540    1.2410 O   0  0  0  0  0  0  0  0  0  0  0  0
   -0.7970   -0.7460   -1.0490 C   0  0  0  0  0  0  0  0  0  0  0  0
   -2.1310   -0.7810   -0.7240 O   0  0  0  0  0  0  0  0  0  0  0  0
   -2.5190    0.0380    0.2980 C   0  0  0  0  0  0  0  0  0  0  0  0
   -1.5880    1.0840    0.7320 C   0  0  2  0  0  0  0  0  0  0  0  0
   -1.9390    2.3130    0.1220 O   0  0  0  0  0  0  0  0  0  0  0  0
   -0.2600    0.8840    0.4920 O   0  0  0  0  0  0  0  0  0  0  0  0
  1  2  1  0
  2  3  1  0
  3  4  1  6
  3  5  1  0
  5  6  1  1
  5  7  1  0
  5 12  1  0
  7  8  1  0
  8  9  1  0
  9 10  1  0
 10 11  1  6
 10 12  1  0
M  END
