
     RDKit          3D

 14 15  0  0  0  0  0  0  0  0999 V2000
    2.5700    2.3190    0.3790 O   0  0  0  0  0  0  0  0  0  0  0  0
    2.4280    0.9390    0.2010 C   0  0  0  0  0  0  0  0  0  0  0  0
    1.1620    0.4090    0.0760 C   0  0  0  0  0  0  0  0  0  0  0  0
    1.0120   -0.9510   -0.1000 C   0  0  0  0  0  0  0  0  0  0  0  0
   -0.2820   -1.4730   -0.2250 O   0  0  0  0  0  0  0  0  0  0  0  0
   -1.3860   -0.6360   -0.1720 C   0  0  0  0  0  0  0  0  0  0  0  0
   -2.0020   -0.3600    1.0450 C   0  0  0  0  0  0  0  0  0  0  0  0
   -3.0980    0.4860    1.0070 C   0  0  0  0  0  0  0  0  0  0  0  0
   -3.5340    1.0130   -0.1940 C   0  0  0  0  0  0  0  0  0  0  0  0
   -2.9150    0.7200   -1.3240 N   0  0  0  0  0  0  0  0  0  0  0  0
   -1.8360   -0.1010   -1.3590 C   0  0  0  0  0  0  0  0  0  0  0  0
    2.1250   -1.7370   -0.1460 C   0  0  0  0  0  0  0  0  0  0  0  0
    3.3660   -1.1690   -0.0170 C   0  0  0  0  0  0  0  0  0  0  0  0
    3.5380    0.1650    0.1560 N   0  0  0  0  0  0  0  0  0  0  0  0
  1  2  1  0
  2  3  2  0
  2 14  1  0
  3  4  1  0
  4  5  1  0
  4 12  2  0
  5  6  1  0
  6  7  2  0
  6 11  1  0
  7  8  1  0
  8  9  2  0
  9 10  1  0
 10 11  2  0
 12 13  1  0
 13 14  2  0
M  END
