
     RDKit          3D

 12 12  0  0  0  0  0  0  0  0999 V2000
   -2.7490   -0.8350    1.0950 O   0  0  0  0  0  0  0  0  0  0  0  0
   -2.8830    0.0900    0.0920 C   0  0  0  0  0  0  0  0  0  0  0  0
   -1.5700    0.5430   -0.4970 C   0  0  1  0  0  0  0  0  0  0  0  0
   -0.7990    1.1160    0.4830 O   0  0  0  0  0  0  0  0  0  0  0  0
    0.0300    0.2240    1.1480 C   0  0  0  0  0  0  0  0  0  0  0  0
    0.9580   -0.4680    0.1480 C   0  0  2  0  0  0  0  0  0  0  0  0
    0.9070   -1.8420    0.2900 O   0  0  0  0  0  0  0  0  0  0  0  0
    2.3790   -0.0300    0.3820 C   0  0  0  0  0  0  0  0  0  0  0  0
    2.5440    1.3480    0.2630 O   0  0  0  0  0  0  0  0  0  0  0  0
    0.4460   -0.1100   -1.2140 C   0  0  1  0  0  0  0  0  0  0  0  0
    1.1250   -0.6860   -2.2510 O   0  0  0  0  0  0  0  0  0  0  0  0
   -0.9260   -0.4590   -1.2110 O   0  0  0  0  0  0  0  0  0  0  0  0
  1  2  1  0
  3  2  1  1
  3  4  1  0
  3 12  1  0
  4  5  1  0
  5  6  1  0
  6  7  1  1
  6  8  1  0
  6 10  1  0
  8  9  1  0
 10 11  1  6
 10 12  1  0
M  END
