
     RDKit          3D

 14 15  0  0  0  0  0  0  0  0999 V2000
    3.6670    0.5450   -0.9730 C   0  0  0  0  0  0  0  0  0  0  0  0
    3.2750    0.3950    0.4580 C   0  0  0  0  0  0  0  0  0  0  0  0
    1.9190    0.6290    0.7060 O   0  0  0  0  0  0  0  0  0  0  0  0
    0.8720   -0.0780    0.1490 C   0  0  0  0  0  0  0  0  0  0  0  0
    1.1350   -1.0000   -0.6380 O   0  0  0  0  0  0  0  0  0  0  0  0
   -0.5100    0.2400    0.4690 C   0  0  0  0  0  0  0  0  0  0  0  0
   -0.7970    1.2830    1.3600 C   0  0  0  0  0  0  0  0  0  0  0  0
   -2.1110    1.5520    1.6350 C   0  0  0  0  0  0  0  0  0  0  0  0
   -3.0850    0.8300    1.0630 N   0  0  0  0  0  0  0  0  0  0  0  0
   -2.8140   -0.1810    0.2000 C   0  0  0  0  0  0  0  0  0  0  0  0
   -3.6100   -1.0310   -0.4870 N   0  0  0  0  0  0  0  0  0  0  0  0
   -2.8800   -1.8720   -1.2230 C   0  0  0  0  0  0  0  0  0  0  0  0
   -1.5340   -1.5700   -1.0190 C   0  0  0  0  0  0  0  0  0  0  0  0
   -1.5180   -0.5120   -0.1280 C   0  0  0  0  0  0  0  0  0  0  0  0
  1  2  1  0
  2  3  1  0
  3  4  1  0
  4  5  2  0
  4  6  1  0
  6  7  2  0
  6 14  1  0
  7  8  1  0
  8  9  2  0
  9 10  1  0
 10 11  1  0
 10 14  2  0
 11 12  1  0
 12 13  2  0
 13 14  1  0
M  END
