
     RDKit          3D

 14 15  0  0  0  0  0  0  0  0999 V2000
    4.2930   -0.0990   -0.1520 C   0  0  0  0  0  0  0  0  0  0  0  0
    2.9610   -0.3940    0.2210 O   0  0  0  0  0  0  0  0  0  0  0  0
    1.8630    0.3160   -0.2210 C   0  0  0  0  0  0  0  0  0  0  0  0
    2.0230    1.2810   -0.9960 O   0  0  0  0  0  0  0  0  0  0  0  0
    0.5330   -0.0700    0.2240 C   0  0  0  0  0  0  0  0  0  0  0  0
    0.4210   -1.1050    1.0490 C   0  0  0  0  0  0  0  0  0  0  0  0
   -0.8060   -1.6550    1.6120 C   0  0  0  0  0  0  0  0  0  0  0  0
   -2.0040   -1.5020    1.0580 C   0  0  0  0  0  0  0  0  0  0  0  0
   -2.4930   -0.8290   -0.1450 C   0  0  0  0  0  0  0  0  0  0  0  0
   -1.8640    0.4250   -0.4610 N   0  0  0  0  0  0  0  0  0  0  0  0
   -2.5560    1.4820   -0.9890 C   0  0  0  0  0  0  0  0  0  0  0  0
   -1.6280    2.4800   -1.1570 C   0  0  0  0  0  0  0  0  0  0  0  0
   -0.4330    2.0260   -0.7420 N   0  0  0  0  0  0  0  0  0  0  0  0
   -0.5700    0.7610   -0.3120 C   0  0  0  0  0  0  0  0  0  0  0  0
  1  2  1  0
  2  3  1  0
  3  4  2  0
  3  5  1  0
  5  6  2  0
  5 14  1  0
  6  7  1  0
  7  8  2  0
  8  9  1  0
  9 10  1  0
 10 11  1  0
 10 14  1  0
 11 12  2  0
 12 13  1  0
 13 14  2  0
M  END
