
     RDKit          3D

 12 12  0  0  0  0  0  0  0  0999 V2000
    4.0650    0.0210    0.2210 O   0  0  0  0  0  0  0  0  0  0  0  0
    2.8370   -0.0010   -0.4000 C   0  0  0  0  0  0  0  0  0  0  0  0
    1.7350   -0.2270    0.6240 C   0  0  1  0  0  0  0  0  0  0  0  0
    1.7610    0.8080    1.5550 O   0  0  0  0  0  0  0  0  0  0  0  0
    0.3840   -0.3140   -0.0350 C   0  0  2  0  0  0  0  0  0  0  0  0
    0.0740    0.8730   -0.6990 O   0  0  0  0  0  0  0  0  0  0  0  0
   -1.1260    0.6090   -1.3990 C   0  0  0  0  0  0  0  0  0  0  0  0
   -2.2030    0.4220   -0.3510 C   0  0  2  0  0  0  0  0  0  0  0  0
   -2.2190    1.4900    0.5650 O   0  0  0  0  0  0  0  0  0  0  0  0
   -1.8210   -0.8130    0.4430 C   0  0  2  0  0  0  0  0  0  0  0  0
   -2.6850   -1.0160    1.5090 O   0  0  0  0  0  0  0  0  0  0  0  0
   -0.5500   -0.6180    0.9460 O   0  0  0  0  0  0  0  0  0  0  0  0
  1  2  1  0
  2  3  1  0
  3  4  1  1
  3  5  1  0
  5  6  1  1
  5 12  1  0
  6  7  1  0
  7  8  1  0
  8  9  1  1
  8 10  1  0
 10 11  1  1
 10 12  1  0
M  END
