
     RDKit          3D

 26 28  0  0  0  0  0  0  0  0999 V2000
   -3.4090    2.9350    0.1570 C   0  0  0  0  0  0  0  0  0  0  0  0
   -3.7020    1.6600    0.9680 C   0  0  0  0  0  0  0  0  0  0  0  0
   -2.5650    1.2220    1.5940 O   0  0  0  0  0  0  0  0  0  0  0  0
   -1.5270    0.8620    0.7880 C   0  0  0  0  0  0  0  0  0  0  0  0
   -1.7130   -0.3990    0.0420 C   0  0  0  0  0  0  0  0  0  0  0  0
   -2.7600   -1.2600    0.2310 C   0  0  0  0  0  0  0  0  0  0  0  0
   -2.8510   -2.4540   -0.4600 C   0  0  0  0  0  0  0  0  0  0  0  0
   -4.0100   -3.3690   -0.2280 C   0  0  0  0  0  0  0  0  0  0  0  0
   -1.8760   -2.8020   -1.3610 C   0  0  0  0  0  0  0  0  0  0  0  0
   -0.8170   -1.9180   -1.5420 C   0  0  0  0  0  0  0  0  0  0  0  0
    0.2610   -2.2760   -2.5210 C   0  0  0  0  0  0  0  0  0  0  0  0
    1.3630   -2.6950   -1.7940 F   0  0  0  0  0  0  0  0  0  0  0  0
   -0.6950   -0.7340   -0.8800 C   0  0  0  0  0  0  0  0  0  0  0  0
    0.3970    0.1170   -1.1060 N   0  0  0  0  0  0  0  0  0  0  0  0
    1.6120    0.0780   -0.3840 C   0  0  0  0  0  0  0  0  0  0  0  0
    1.7560   -0.7610    0.5250 O   0  0  0  0  0  0  0  0  0  0  0  0
    2.6800    1.0170   -0.7090 C   0  0  1  0  0  0  0  0  0  0  0  0
    2.2710    2.4610   -0.5470 C   0  0  0  0  0  0  0  0  0  0  0  0
    3.5100    3.0800   -0.2290 O   0  0  0  0  0  0  0  0  0  0  0  0
    4.3110    2.1090    0.3990 C   0  0  0  0  0  0  0  0  0  0  0  0
    3.8660    0.9010    0.1480 C   0  0  0  0  0  0  0  0  0  0  0  0
    4.7620   -0.0310    0.8420 C   0  0  0  0  0  0  0  0  0  0  0  0
    4.5960   -1.4330    0.8020 N   0  0  0  0  0  0  0  0  0  0  0  0
    5.6720    0.6200    1.4570 N   0  0  0  0  0  0  0  0  0  0  0  0
    5.5040    2.0160    1.2590 C   0  0  0  0  0  0  0  0  0  0  0  0
    6.2170    2.9360    1.7180 O   0  0  0  0  0  0  0  0  0  0  0  0
  1  2  1  0
  2  3  1  0
  3  4  1  0
  4  5  1  0
  5  6  2  0
  5 13  1  0
  6  7  1  0
  7  8  1  0
  7  9  2  0
  9 10  1  0
 10 11  1  0
 10 13  2  0
 11 12  1  0
 13 14  1  0
 14 15  1  0
 15 16  2  0
 17 15  1  1
 17 18  1  0
 17 21  1  0
 18 19  1  0
 19 20  1  0
 20 21  2  0
 20 25  1  0
 21 22  1  0
 22 23  1  0
 22 24  2  0
 24 25  1  0
 25 26  2  0
M  END
