
     RDKit          3D

 26 27  0  0  0  0  0  0  0  0999 V2000
    7.4150    1.1760   -0.9690 C   0  0  0  0  0  0  0  0  0  0  0  0
    7.2770    0.2700   -0.0890 C   0  0  0  0  0  0  0  0  0  0  0  0
    6.1710   -0.4140    0.5200 C   0  0  0  0  0  0  0  0  0  0  0  0
    6.4930   -1.3230    1.4280 C   0  0  0  0  0  0  0  0  0  0  0  0
    5.6560   -2.1780    2.2210 C   0  0  0  0  0  0  0  0  0  0  0  0
    5.9290   -3.5540    1.9610 F   0  0  0  0  0  0  0  0  0  0  0  0
    4.7830   -0.1860    0.2290 C   0  0  0  0  0  0  0  0  0  0  0  0
    3.8640   -0.8640    0.8340 O   0  0  0  0  0  0  0  0  0  0  0  0
    4.2270    0.7360   -0.6850 N   0  0  0  0  0  0  0  0  0  0  0  0
    2.8150    0.8510   -0.8670 N   0  0  0  0  0  0  0  0  0  0  0  0
    2.2260    1.8290   -1.6760 C   0  0  0  0  0  0  0  0  0  0  0  0
    3.1390    2.6110   -2.2200 O   0  0  0  0  0  0  0  0  0  0  0  0
    0.8840    2.1260   -2.0110 C   0  0  0  0  0  0  0  0  0  0  0  0
   -0.2570    1.7060   -1.8070 C   0  0  0  0  0  0  0  0  0  0  0  0
   -0.9270    0.6440   -1.1020 C   0  0  0  0  0  0  0  0  0  0  0  0
   -0.5150   -0.4730   -0.4590 C   0  0  0  0  0  0  0  0  0  0  0  0
   -1.6380   -1.1480    0.0590 C   0  0  0  0  0  0  0  0  0  0  0  0
   -2.7050   -0.3790   -0.3100 C   0  0  0  0  0  0  0  0  0  0  0  0
   -4.0730   -0.7220    0.0280 N   0  0  0  0  0  0  0  0  0  0  0  0
   -5.1040    0.1600   -0.3920 C   0  0  0  0  0  0  0  0  0  0  0  0
   -4.7620    1.2060   -1.0420 O   0  0  0  0  0  0  0  0  0  0  0  0
   -6.5210   -0.0850   -0.1100 C   0  0  1  0  0  0  0  0  0  0  0  0
   -6.9770   -1.5480   -0.2420 C   0  0  0  0  0  0  0  0  0  0  0  0
   -6.9310   -0.9210    1.1010 C   0  0  2  0  0  0  0  0  0  0  0  0
   -8.2150   -0.4650    1.7660 C   0  0  0  0  0  0  0  0  0  0  0  0
   -2.2860    0.6250   -0.9630 O   0  0  0  0  0  0  0  0  0  0  0  0
  1  2  2  0
  2  3  1  0
  3  4  2  3
  3  7  1  0
  4  5  1  0
  5  6  1  0
  7  8  2  0
  7  9  1  0
  9 10  1  0
 10 11  1  0
 11 12  2  0
 11 13  1  0
 13 14  2  3
 14 15  1  0
 15 16  2  0
 15 26  1  0
 16 17  1  0
 17 18  2  0
 18 19  1  0
 18 26  1  0
 19 20  1  0
 20 21  2  0
 22 20  1  1
 22 23  1  0
 22 24  1  0
 23 24  1  0
 24 25  1  6
M  END
