
     RDKit          3D

 22 24  0  0  0  0  0  0  0  0999 V2000
    3.8280    2.6530   -0.4850 C   0  0  0  0  0  0  0  0  0  0  0  0
    4.1390    1.4550    0.2940 C   0  0  0  0  0  0  0  0  0  0  0  0
    5.4930    1.2050    0.7910 C   0  0  0  0  0  0  0  0  0  0  0  0
    3.1600    0.5690    0.5430 C   0  0  0  0  0  0  0  0  0  0  0  0
    3.3990   -0.6310    1.3050 C   0  0  0  0  0  0  0  0  0  0  0  0
    2.5010   -1.5100    1.5800 C   0  0  0  0  0  0  0  0  0  0  0  0
    2.8880   -2.6770    2.3600 C   0  0  0  0  0  0  0  0  0  0  0  0
    3.2020   -3.5970    2.9640 N   0  0  0  0  0  0  0  0  0  0  0  0
    1.1090   -1.4230    1.1810 C   0  0  0  0  0  0  0  0  0  0  0  0
    0.4440   -0.5100    0.4740 N   0  0  0  0  0  0  0  0  0  0  0  0
   -0.8620   -0.8390    0.3440 C   0  0  0  0  0  0  0  0  0  0  0  0
   -1.8630   -0.0300   -0.4060 C   0  0  0  0  0  0  0  0  0  0  0  0
   -1.5730    1.0960   -1.0470 C   0  0  0  0  0  0  0  0  0  0  0  0
   -2.7520    1.6850   -1.6990 C   0  0  0  0  0  0  0  0  0  0  0  0
   -3.8200    0.7180   -1.3760 C   0  0  0  0  0  0  0  0  0  0  0  0
   -5.1220    0.5260   -1.5920 N   0  0  0  0  0  0  0  0  0  0  0  0
   -5.4480   -0.6080   -0.9590 C   0  0  0  0  0  0  0  0  0  0  0  0
   -4.3110   -1.1390   -0.3280 C   0  0  0  0  0  0  0  0  0  0  0  0
   -4.3090   -2.3880    0.4800 C   0  0  0  0  0  0  0  0  0  0  0  0
   -3.2770   -0.2890   -0.6000 C   0  0  0  0  0  0  0  0  0  0  0  0
   -0.9730   -1.9790    0.9920 N   0  0  0  0  0  0  0  0  0  0  0  0
    0.1620   -2.3270    1.4830 O   0  0  0  0  0  0  0  0  0  0  0  0
  1  2  1  0
  2  3  1  0
  2  4  2  3
  4  5  1  0
  5  6  2  3
  6  7  1  0
  6  9  1  0
  7  8  3  0
  9 10  2  0
  9 22  1  0
 10 11  1  0
 11 12  1  0
 11 21  2  0
 12 13  2  0
 12 20  1  0
 13 14  1  0
 14 15  1  0
 15 16  1  0
 15 20  2  0
 16 17  1  0
 17 18  2  0
 18 19  1  0
 18 20  1  0
 21 22  1  0
M  END
