
     RDKit          3D

 22 24  0  0  0  0  0  0  0  0999 V2000
   -0.5900    2.5450    2.7080 C   0  0  0  0  0  0  0  0  0  0  0  0
   -1.6090    2.9600    2.0060 C   0  0  0  0  0  0  0  0  0  0  0  0
   -2.1180    2.1500    0.9100 C   0  0  0  0  0  0  0  0  0  0  0  0
   -3.1490    2.6290    0.2540 C   0  0  0  0  0  0  0  0  0  0  0  0
   -3.7760    1.9410   -0.8620 C   0  0  0  0  0  0  0  0  0  0  0  0
   -3.2620    0.7910   -1.2000 C   0  0  0  0  0  0  0  0  0  0  0  0
   -2.1560    0.2150   -0.5370 N   0  0  0  0  0  0  0  0  0  0  0  0
   -1.7380   -1.0560   -1.0120 N   0  0  0  0  0  0  0  0  0  0  0  0
   -2.5850   -2.0250   -0.9750 C   0  0  0  0  0  0  0  0  0  0  0  0
   -1.4860    0.8700    0.5440 C   0  0  1  0  0  0  0  0  0  0  0  0
   -0.0710    1.0720    0.2250 N   0  0  0  0  0  0  0  0  0  0  0  0
    0.8420    0.0030    0.1060 C   0  0  0  0  0  0  0  0  0  0  0  0
    0.5520   -1.2100    0.6890 C   0  0  0  0  0  0  0  0  0  0  0  0
    1.4360   -2.2920    0.5660 C   0  0  0  0  0  0  0  0  0  0  0  0
    2.5940   -2.1060   -0.1490 C   0  0  0  0  0  0  0  0  0  0  0  0
    3.4800   -3.1760   -0.2780 C   0  0  0  0  0  0  0  0  0  0  0  0
    4.5930   -2.9680   -0.9750 N   0  0  0  0  0  0  0  0  0  0  0  0
    4.9100   -1.8400   -1.5430 N   0  0  0  0  0  0  0  0  0  0  0  0
    4.0950   -0.7830   -1.4490 C   0  0  0  0  0  0  0  0  0  0  0  0
    4.3730    0.3180   -1.9860 O   0  0  0  0  0  0  0  0  0  0  0  0
    2.9110   -0.9100   -0.7410 C   0  0  0  0  0  0  0  0  0  0  0  0
    2.0310    0.1300   -0.6050 C   0  0  0  0  0  0  0  0  0  0  0  0
  1  2  2  0
  2  3  1  0
  3  4  2  0
  3 10  1  0
  4  5  1  0
  5  6  2  0
  6  7  1  0
  7  8  1  0
  7 10  1  0
  8  9  2  0
 10 11  1  6
 11 12  1  0
 12 13  2  0
 12 22  1  0
 13 14  1  0
 14 15  2  0
 15 16  1  0
 15 21  1  0
 16 17  2  0
 17 18  1  0
 18 19  1  0
 19 20  2  0
 19 21  1  0
 21 22  2  0
M  END
