
     RDKit          3D

 22 25  0  0  0  0  0  0  0  0999 V2000
   -6.5870    0.5960   -0.8850 C   0  0  0  0  0  0  0  0  0  0  0  0
   -5.1840    0.2490   -0.4070 C   0  0  0  0  0  0  0  0  0  0  0  0
   -4.4200   -0.5380   -1.0970 C   0  0  0  0  0  0  0  0  0  0  0  0
   -3.0250   -0.8530   -0.6800 C   0  0  0  0  0  0  0  0  0  0  0  0
   -2.1990   -1.4740   -1.5780 C   0  0  0  0  0  0  0  0  0  0  0  0
   -0.8560   -1.4980   -1.3340 C   0  0  0  0  0  0  0  0  0  0  0  0
    0.0500   -2.1360   -2.2340 O   0  0  0  0  0  0  0  0  0  0  0  0
   -0.2740   -0.8990   -0.1950 C   0  0  0  0  0  0  0  0  0  0  0  0
    1.1200   -0.4770   -0.4230 C   0  0  0  0  0  0  0  0  0  0  0  0
    2.3440   -0.7120    0.0330 N   0  0  0  0  0  0  0  0  0  0  0  0
    2.8760   -0.5720    1.2820 C   0  0  0  0  0  0  0  0  0  0  0  0
    3.6470    0.7150    1.4760 C   0  0  0  0  0  0  0  0  0  0  0  0
    4.7460    0.7640    0.5250 N   0  0  0  0  0  0  0  0  0  0  0  0
    6.0070    1.1520    0.4810 C   0  0  0  0  0  0  0  0  0  0  0  0
    6.5190    1.0120   -0.8050 C   0  0  0  0  0  0  0  0  0  0  0  0
    5.5490    0.5140   -1.5530 N   0  0  0  0  0  0  0  0  0  0  0  0
    4.4450    0.3600   -0.7150 C   0  0  0  0  0  0  0  0  0  0  0  0
    3.2040   -0.2130   -1.1020 C   0  0  0  0  0  0  0  0  0  0  0  0
   -1.0980   -0.2960    0.7290 C   0  0  0  0  0  0  0  0  0  0  0  0
   -2.5090   -0.3000    0.4260 C   0  0  0  0  0  0  0  0  0  0  0  0
   -3.3320    0.5940    1.1530 N   0  0  0  0  0  0  0  0  0  0  0  0
   -4.7260    0.6410    0.9390 C   0  0  0  0  0  0  0  0  0  0  0  0
  1  2  1  0
  2  3  2  0
  2 22  1  0
  3  4  1  0
  4  5  2  0
  4 20  1  0
  5  6  1  0
  6  7  1  0
  6  8  2  0
  8  9  1  0
  8 19  1  0
  9 10  1  0
 10 11  1  0
 10 18  1  0
 11 12  1  0
 12 13  1  0
 13 14  1  0
 13 17  1  0
 14 15  2  0
 15 16  1  0
 16 17  2  0
 17 18  1  0
 19 20  2  0
 20 21  1  0
 21 22  1  0
M  END
