
     RDKit          3D

 23 24  0  0  0  0  0  0  0  0999 V2000
   -5.5730    0.5620   -2.0560 C   0  0  0  0  0  0  0  0  0  0  0  0
   -4.6110    0.6200   -0.9200 C   0  0  0  0  0  0  0  0  0  0  0  0
   -4.6630   -0.2830    0.1160 C   0  0  0  0  0  0  0  0  0  0  0  0
   -3.7860   -0.2490    1.1760 C   0  0  0  0  0  0  0  0  0  0  0  0
   -2.7840    0.7290    1.2420 C   0  0  0  0  0  0  0  0  0  0  0  0
   -1.8540    0.7530    2.4110 C   0  0  0  0  0  0  0  0  0  0  0  0
   -0.8920   -0.3210    2.2140 N   0  0  0  0  0  0  0  0  0  0  0  0
    0.2100   -0.1920    1.2820 C   0  0  0  0  0  0  0  0  0  0  0  0
    0.2660    0.8940    0.6770 O   0  0  0  0  0  0  0  0  0  0  0  0
    1.1060   -1.2750    1.1400 N   0  0  0  0  0  0  0  0  0  0  0  0
    2.2150   -1.2420    0.2640 C   0  0  0  0  0  0  0  0  0  0  0  0
    2.5690   -0.1500   -0.4870 C   0  0  0  0  0  0  0  0  0  0  0  0
    3.6930   -0.1480   -1.3420 C   0  0  0  0  0  0  0  0  0  0  0  0
    4.0730    1.2890   -2.2590 S   0  0  1  0  0  0  0  0  0  0  0  0
    5.1480    2.2490   -1.3050 N   0  0  0  0  0  0  0  0  0  0  0  0
    4.7420    0.8220   -3.5420 O   0  0  0  0  0  0  0  0  0  0  0  0
    2.8320    2.0750   -2.6120 O   0  0  0  0  0  0  0  0  0  0  0  0
    4.4200   -1.3070   -1.3830 C   0  0  0  0  0  0  0  0  0  0  0  0
    4.0990   -2.4060   -0.6550 C   0  0  0  0  0  0  0  0  0  0  0  0
    2.9900   -2.4050    0.1870 C   0  0  0  0  0  0  0  0  0  0  0  0
    2.7280   -3.5490    0.8910 O   0  0  0  0  0  0  0  0  0  0  0  0
   -2.7390    1.6260    0.2060 C   0  0  0  0  0  0  0  0  0  0  0  0
   -3.6210    1.5940   -0.8630 C   0  0  0  0  0  0  0  0  0  0  0  0
  1  2  1  0
  2  3  2  0
  2 23  1  0
  3  4  1  0
  4  5  2  0
  5  6  1  0
  5 22  1  0
  6  7  1  0
  7  8  1  0
  8  9  2  0
  8 10  1  0
 10 11  1  0
 11 12  2  0
 11 20  1  0
 12 13  1  0
 13 14  1  0
 13 18  2  0
 14 15  1  1
 14 16  2  0
 14 17  2  0
 18 19  1  0
 19 20  2  0
 20 21  1  0
 22 23  2  0
M  END
