
     RDKit          3D

 22 24  0  0  0  0  0  0  0  0999 V2000
    4.9480    0.7590    0.1760 C   0  0  0  0  0  0  0  0  0  0  0  0
    4.5980   -0.6400    0.4450 C   0  0  0  0  0  0  0  0  0  0  0  0
    3.3340   -1.2720    0.2600 C   0  0  0  0  0  0  0  0  0  0  0  0
    2.2320   -0.8000   -0.1670 C   0  0  0  0  0  0  0  0  0  0  0  0
    1.8070    0.5330   -0.6330 C   0  0  1  0  0  0  0  0  0  0  0  0
    1.3310    0.3010   -2.0630 C   0  0  0  0  0  0  0  0  0  0  0  0
    0.0360   -0.4170   -1.9680 C   0  0  0  0  0  0  0  0  0  0  0  0
   -0.5010   -1.5200   -2.4700 N   0  0  0  0  0  0  0  0  0  0  0  0
   -1.7200   -1.6860   -2.0420 N   0  0  0  0  0  0  0  0  0  0  0  0
   -2.0490   -0.6290   -1.1890 C   0  0  0  0  0  0  0  0  0  0  0  0
   -3.3710   -0.6200   -0.6080 C   0  0  2  0  0  0  0  0  0  0  0  0
   -4.2090    0.5770   -0.5730 C   0  0  0  0  0  0  0  0  0  0  0  0
   -5.6540    0.0240   -0.3120 C   0  0  0  0  0  0  0  0  0  0  0  0
   -5.6790   -0.6060    0.9040 O   0  0  0  0  0  0  0  0  0  0  0  0
   -4.5060   -0.6640    1.6050 C   0  0  0  0  0  0  0  0  0  0  0  0
   -3.3290   -1.1940    0.8080 C   0  0  0  0  0  0  0  0  0  0  0  0
   -0.9720    0.1230   -1.1610 N   0  0  0  0  0  0  0  0  0  0  0  0
   -0.5820    1.3320   -0.5300 C   0  0  1  0  0  0  0  0  0  0  0  0
   -1.4710    1.9890    0.4570 C   0  0  0  0  0  0  0  0  0  0  0  0
    0.6990    1.0090    0.2500 C   0  0  0  0  0  0  0  0  0  0  0  0
    5.6010   -1.4170    0.9250 C   0  0  0  0  0  0  0  0  0  0  0  0
    6.8610   -0.8320    1.1200 N   0  0  0  0  0  0  0  0  0  0  0  0
  1  2  1  0
  2  3  1  0
  2 21  2  3
  3  4  2  3
  5  4  1  1
  5  6  1  0
  5 20  1  0
  6  7  1  0
  7  8  2  0
  7 17  1  0
  8  9  1  0
  9 10  2  0
 11 10  1  1
 10 17  1  0
 11 12  1  0
 11 16  1  0
 12 13  1  0
 13 14  1  0
 14 15  1  0
 15 16  1  0
 17 18  1  0
 18 19  1  1
 18 20  1  0
 21 22  1  0
M  END
