
     RDKit          3D

 22 23  0  0  0  0  0  0  0  0999 V2000
   -3.4480    1.5650    2.4450 C   0  0  0  0  0  0  0  0  0  0  0  0
   -4.2940    1.2200    1.5060 C   0  0  0  0  0  0  0  0  0  0  0  0
   -3.8690    0.7150    0.2320 C   0  0  0  0  0  0  0  0  0  0  0  0
   -4.7990    0.3760   -0.6730 C   0  0  0  0  0  0  0  0  0  0  0  0
   -4.2730   -0.1350   -1.9550 C   0  0  0  0  0  0  0  0  0  0  0  0
   -3.1830   -1.1510   -1.7000 C   0  0  0  0  0  0  0  0  0  0  0  0
   -2.0530   -0.6530   -0.8680 C   0  0  0  0  0  0  0  0  0  0  0  0
   -2.4480    0.5800   -0.1030 C   0  0  0  0  0  0  0  0  0  0  0  0
   -1.6480    1.4920    0.2510 N   0  0  0  0  0  0  0  0  0  0  0  0
   -0.2110    1.3960   -0.0640 C   0  0  0  0  0  0  0  0  0  0  0  0
    0.2340    2.4010   -1.0080 C   0  0  0  0  0  0  0  0  0  0  0  0
    0.4280    0.4920    0.5750 C   0  0  0  0  0  0  0  0  0  0  0  0
    1.7270   -0.0660    0.7080 C   0  0  0  0  0  0  0  0  0  0  0  0
    1.8420   -1.0440    1.6520 C   0  0  0  0  0  0  0  0  0  0  0  0
    3.0540   -1.7750    1.9980 C   0  0  0  0  0  0  0  0  0  0  0  0
    4.3220   -1.4840    1.7820 C   0  0  0  0  0  0  0  0  0  0  0  0
    5.3080   -2.3820    2.2340 N   0  0  0  0  0  0  0  0  0  0  0  0
    4.7590   -0.3030    1.0840 N   0  0  0  0  0  0  0  0  0  0  0  0
    4.1050    0.2480   -0.0170 N   0  0  0  0  0  0  0  0  0  0  0  0
    2.8020    0.3470   -0.1790 C   0  0  0  0  0  0  0  0  0  0  0  0
    2.4650    0.9240   -1.3860 O   0  0  0  0  0  0  0  0  0  0  0  0
    3.2350    0.7470   -2.5540 C   0  0  0  0  0  0  0  0  0  0  0  0
  1  2  2  0
  2  3  1  0
  3  4  2  0
  3  8  1  0
  4  5  1  0
  5  6  1  0
  6  7  1  0
  7  8  1  0
  8  9  2  3
  9 10  1  0
 10 11  1  0
 10 12  2  3
 12 13  1  0
 13 14  2  0
 13 20  1  0
 14 15  1  0
 15 16  2  0
 16 17  1  0
 16 18  1  0
 18 19  1  0
 19 20  2  0
 20 21  1  0
 21 22  1  0
M  END
