
     RDKit          3D

 22 22  0  0  0  0  0  0  0  0999 V2000
   -4.9310   -0.6590    0.7620 C   0  0  0  0  0  0  0  0  0  0  0  0
   -4.5100    0.2210   -0.4260 C   0  0  1  0  0  0  0  0  0  0  0  0
   -5.5350   -0.3290   -1.5360 C   0  0  0  0  0  0  0  0  0  0  0  0
   -4.8650    1.5710   -0.1870 C   0  0  0  0  0  0  0  0  0  0  0  0
   -5.0130    2.4660   -1.2350 O   0  0  0  0  0  0  0  0  0  0  0  0
   -3.2830   -0.1670   -0.9070 O   0  0  0  0  0  0  0  0  0  0  0  0
   -2.2040   -0.4830   -0.1780 C   0  0  0  0  0  0  0  0  0  0  0  0
   -2.5700   -1.6450    0.7390 N   0  0  0  0  0  0  0  0  0  0  0  0
   -1.0100   -0.1440   -0.0370 C   0  0  0  0  0  0  0  0  0  0  0  0
    0.0500   -0.9640    1.1960 S   0  0  0  0  0  0  0  0  0  0  0  0
    1.7430   -0.8800    0.6750 C   0  0  0  0  0  0  0  0  0  0  0  0
    1.9810    0.0490   -0.5190 C   0  0  2  0  0  0  0  0  0  0  0  0
    3.2990    0.7590   -0.1940 C   0  0  0  0  0  0  0  0  0  0  0  0
    3.1840    1.9130    0.2860 O   0  0  0  0  0  0  0  0  0  0  0  0
    4.4610    0.1110   -0.4400 N   0  0  0  0  0  0  0  0  0  0  0  0
    5.7050    0.2930   -0.3090 O   0  0  0  0  0  0  0  0  0  0  0  0
    6.1110    0.7290    0.9580 C   0  0  0  0  0  0  0  0  0  0  0  0
    7.2500   -0.3770    1.1580 C   0  0  0  0  0  0  0  0  0  0  0  0
    8.1310   -0.2370    0.1420 O   0  0  0  0  0  0  0  0  0  0  0  0
    1.0280    1.0390   -0.5940 O   0  0  0  0  0  0  0  0  0  0  0  0
   -0.3040    0.8770   -0.8810 C   0  0  0  0  0  0  0  0  0  0  0  0
   -0.9830    1.4550   -1.7450 O   0  0  0  0  0  0  0  0  0  0  0  0
  2  1  1  1
  2  3  1  0
  2  4  1  0
  2  6  1  0
  4  5  1  0
  6  7  1  0
  7  8  1  0
  7  9  2  3
  9 10  1  0
  9 21  1  0
 10 11  1  0
 11 12  1  0
 12 13  1  1
 12 20  1  0
 13 14  2  0
 13 15  1  0
 15 16  1  0
 16 17  1  0
 17 18  1  0
 18 19  1  0
 20 21  1  0
 21 22  2  0
M  END
