
     RDKit          3D

 22 22  0  0  0  0  0  0  0  0999 V2000
    8.1650    0.3160    0.2880 N   0  0  0  0  0  0  0  0  0  0  0  0
    6.8320    0.1010   -0.1300 C   0  0  0  0  0  0  0  0  0  0  0  0
    6.1050    1.1090   -0.3130 O   0  0  0  0  0  0  0  0  0  0  0  0
    6.2780   -1.2700   -0.3570 C   0  0  0  0  0  0  0  0  0  0  0  0
    4.8960   -1.1730   -0.7780 N   0  0  0  0  0  0  0  0  0  0  0  0
    3.8760   -0.5830   -0.0220 C   0  0  0  0  0  0  0  0  0  0  0  0
    4.1520   -0.0990    1.1000 O   0  0  0  0  0  0  0  0  0  0  0  0
    2.5400   -0.4900   -0.4320 O   0  0  0  0  0  0  0  0  0  0  0  0
    1.5650    0.1280    0.3980 C   0  0  1  0  0  0  0  0  0  0  0  0
    1.0480    1.3370   -0.3460 C   0  0  0  0  0  0  0  0  0  0  0  0
   -0.2750    0.9620   -0.6770 O   0  0  0  0  0  0  0  0  0  0  0  0
   -0.7840    0.1230    0.2870 C   0  0  0  0  0  0  0  0  0  0  0  0
   -2.0110    0.0830    0.7820 C   0  0  0  0  0  0  0  0  0  0  0  0
   -2.3750   -0.8320    1.7620 O   0  0  0  0  0  0  0  0  0  0  0  0
   -3.0670    1.0160    0.3150 C   0  0  0  0  0  0  0  0  0  0  0  0
   -4.1900    0.2170   -0.2500 C   0  0  0  0  0  0  0  0  0  0  0  0
   -4.1340   -0.2800   -1.4020 O   0  0  0  0  0  0  0  0  0  0  0  0
   -5.3120    0.0310    0.5310 O   0  0  0  0  0  0  0  0  0  0  0  0
   -6.4360   -0.6840    0.1440 C   0  0  0  0  0  0  0  0  0  0  0  0
   -7.0710   -0.0680   -1.0570 C   0  0  0  0  0  0  0  0  0  0  0  0
   -7.5370    1.6430   -0.5950 S   0  0  0  0  0  0  0  0  0  0  0  0
    0.3780   -0.7540    0.6640 C   0  0  0  0  0  0  0  0  0  0  0  0
  1  2  1  0
  2  3  2  0
  2  4  1  0
  4  5  1  0
  5  6  1  0
  6  7  2  0
  6  8  1  0
  9  8  1  6
  9 10  1  0
  9 22  1  0
 10 11  1  0
 11 12  1  0
 12 13  2  3
 12 22  1  0
 13 14  1  0
 13 15  1  0
 15 16  1  0
 16 17  2  0
 16 18  1  0
 18 19  1  0
 19 20  1  0
 20 21  1  0
M  END
