
     RDKit          3D

 27 29  0  0  0  0  0  0  0  0999 V2000
    4.1480   -2.9280    0.5450 C   0  0  0  0  0  0  0  0  0  0  0  0
    3.4200   -1.6460    0.9120 C   0  0  2  0  0  0  0  0  0  0  0  0
    2.4230   -2.0650    2.0020 C   0  0  0  0  0  0  0  0  0  0  0  0
    2.6060   -1.1640   -0.2580 C   0  0  0  0  0  0  0  0  0  0  0  0
    1.9280    0.0040    0.0030 O   0  0  0  0  0  0  0  0  0  0  0  0
    1.1750    0.4150   -1.1000 C   0  0  0  0  0  0  0  0  0  0  0  0
    0.4700    1.7250   -0.8120 C   0  0  1  0  0  0  0  0  0  0  0  0
   -0.4700    1.5980    0.3290 C   0  0  0  0  0  0  0  0  0  0  0  0
   -1.5240    0.6370    0.1450 N   0  0  0  0  0  0  0  0  0  0  0  0
   -2.6070    0.7630   -0.7640 C   0  0  0  0  0  0  0  0  0  0  0  0
   -3.5300   -0.3370   -0.8980 C   0  0  0  0  0  0  0  0  0  0  0  0
   -3.8090   -0.8670   -2.1610 C   0  0  0  0  0  0  0  0  0  0  0  0
   -4.6910   -1.9150   -2.3290 C   0  0  0  0  0  0  0  0  0  0  0  0
   -5.3230   -2.4710   -1.2380 C   0  0  0  0  0  0  0  0  0  0  0  0
   -5.0680   -1.9670    0.0440 C   0  0  0  0  0  0  0  0  0  0  0  0
   -4.1700   -0.9060    0.1650 C   0  0  0  0  0  0  0  0  0  0  0  0
   -1.4430   -0.5250    0.9640 C   0  0  0  0  0  0  0  0  0  0  0  0
   -1.3640   -0.3730    2.3610 C   0  0  0  0  0  0  0  0  0  0  0  0
   -1.2700   -1.4650    3.1790 C   0  0  0  0  0  0  0  0  0  0  0  0
   -1.2470   -2.7420    2.6760 C   0  0  0  0  0  0  0  0  0  0  0  0
   -1.3260   -2.8690    1.2870 C   0  0  0  0  0  0  0  0  0  0  0  0
   -1.4220   -1.7940    0.4460 C   0  0  0  0  0  0  0  0  0  0  0  0
    1.5500    2.6710   -0.5250 N   0  0  0  0  0  0  0  0  0  0  0  0
    2.4060    2.8290   -1.6880 C   0  0  0  0  0  0  0  0  0  0  0  0
    3.1600    4.1030   -1.4410 C   0  0  0  0  0  0  0  0  0  0  0  0
    2.3100    4.8430   -0.4620 C   0  0  0  0  0  0  0  0  0  0  0  0
    1.0670    3.9860   -0.2660 C   0  0  0  0  0  0  0  0  0  0  0  0
  2  1  1  6
  2  3  1  0
  2  4  1  0
  4  5  1  0
  5  6  1  0
  7  6  1  1
  7  8  1  0
  7 23  1  0
  8  9  1  0
  9 10  1  0
  9 17  1  0
 10 11  1  0
 11 12  2  0
 11 16  1  0
 12 13  1  0
 13 14  2  0
 14 15  1  0
 15 16  2  0
 17 18  2  0
 17 22  1  0
 18 19  1  0
 19 20  2  0
 20 21  1  0
 21 22  2  0
 23 24  1  0
 23 27  1  0
 24 25  1  0
 25 26  1  0
 26 27  1  0
M  END
