
     RDKit          3D

 22 22  0  0  0  0  0  0  0  0999 V2000
    3.5830    2.7000    0.3840 N   0  0  0  0  0  0  0  0  0  0  0  0
    4.2000    1.4490    0.1260 C   0  0  0  0  0  0  0  0  0  0  0  0
    5.3870    1.3800    0.0700 O   0  0  0  0  0  0  0  0  0  0  0  0
    3.3130    0.2480   -0.0690 C   0  0  0  0  0  0  0  0  0  0  0  0
    1.9870    0.6310    0.0240 N   0  0  0  0  0  0  0  0  0  0  0  0
    0.7510    0.0170    0.1240 C   0  0  0  0  0  0  0  0  0  0  0  0
    0.6480   -1.2010    0.1750 O   0  0  0  0  0  0  0  0  0  0  0  0
   -0.4880    0.8840    0.1720 C   0  0  0  0  0  0  0  0  0  0  0  0
   -1.6340    0.0850    0.2710 O   0  0  0  0  0  0  0  0  0  0  0  0
   -2.9160    0.5560    0.3340 C   0  0  0  0  0  0  0  0  0  0  0  0
   -3.0960    1.7990    0.3020 O   0  0  0  0  0  0  0  0  0  0  0  0
   -4.1240   -0.3100    0.4390 C   0  0  1  0  0  0  0  0  0  0  0  0
   -5.3850    0.4850    0.4890 C   0  0  0  0  0  0  0  0  0  0  0  0
   -6.4530   -0.4050    0.5870 O   0  0  0  0  0  0  0  0  0  0  0  0
   -4.1130   -1.2180   -0.7920 C   0  0  0  0  0  0  0  0  0  0  0  0
   -4.1700   -0.2560   -2.3190 S   0  0  0  0  0  0  0  0  0  0  0  0
    3.9490   -0.8970   -0.1310 C   0  0  0  0  0  0  0  0  0  0  0  0
    5.4070   -1.0900   -0.0060 C   0  0  0  0  0  0  0  0  0  0  0  0
    5.7350   -2.3630   -0.2360 C   0  0  0  0  0  0  0  0  0  0  0  0
    4.6200   -3.0820   -0.5130 O   0  0  0  0  0  0  0  0  0  0  0  0
    3.4870   -2.2440   -0.4670 C   0  0  0  0  0  0  0  0  0  0  0  0
    2.3710   -2.7090   -0.6970 O   0  0  0  0  0  0  0  0  0  0  0  0
  1  2  1  0
  2  3  2  0
  2  4  1  0
  4  5  1  0
  4 17  2  3
  5  6  1  0
  6  7  2  0
  6  8  1  0
  8  9  1  0
  9 10  1  0
 10 11  2  0
 10 12  1  0
 12 13  1  6
 12 15  1  0
 13 14  1  0
 15 16  1  0
 17 18  1  0
 17 21  1  0
 18 19  2  0
 19 20  1  0
 20 21  1  0
 21 22  2  0
M  END
