
     RDKit          3D

 22 22  0  0  0  0  0  0  0  0999 V2000
   -4.8300   -0.0770    1.4960 C   0  0  0  0  0  0  0  0  0  0  0  0
   -4.0900   -0.4060    0.2010 C   0  0  0  0  0  0  0  0  0  0  0  0
   -3.2730    0.7540   -0.2770 C   0  0  0  0  0  0  0  0  0  0  0  0
   -2.0060    0.7350   -0.4320 C   0  0  0  0  0  0  0  0  0  0  0  0
   -1.0380   -0.3110   -0.2190 C   0  0  0  0  0  0  0  0  0  0  0  0
   -1.3130   -1.4680    0.1900 O   0  0  0  0  0  0  0  0  0  0  0  0
    0.3330   -0.1190   -0.4550 O   0  0  0  0  0  0  0  0  0  0  0  0
    1.2940   -1.1380   -0.2500 C   0  0  1  0  0  0  0  0  0  0  0  0
    1.2980   -1.6000    1.2040 C   0  0  0  0  0  0  0  0  0  0  0  0
    1.0820   -2.2940   -1.1500 C   0  0  0  0  0  0  0  0  0  0  0  0
    0.0340   -2.3380   -2.0900 N   0  0  0  0  0  0  0  0  0  0  0  0
    1.8570   -3.2810   -1.0870 O   0  0  0  0  0  0  0  0  0  0  0  0
    2.6250   -0.5210   -0.5560 C   0  0  0  0  0  0  0  0  0  0  0  0
    3.6230   -1.2790   -0.4300 O   0  0  0  0  0  0  0  0  0  0  0  0
    2.7850    0.7770   -0.9500 O   0  0  0  0  0  0  0  0  0  0  0  0
    4.0600    1.3270   -1.2310 C   0  0  0  0  0  0  0  0  0  0  0  0
    4.9580    1.2710   -0.0580 C   0  0  0  0  0  0  0  0  0  0  0  0
    4.5920    0.7320    1.2000 N   0  0  0  0  0  0  0  0  0  0  0  0
    6.1150    1.7300   -0.1900 O   0  0  0  0  0  0  0  0  0  0  0  0
   -1.5480    2.3940   -1.0180 S   0  0  0  0  0  0  0  0  0  0  0  0
   -3.2010    3.0880   -0.5900 C   0  0  0  0  0  0  0  0  0  0  0  0
   -3.9170    1.9220   -0.5720 O   0  0  0  0  0  0  0  0  0  0  0  0
  1  2  1  0
  2  3  1  0
  3  4  2  0
  3 22  1  0
  4  5  1  0
  4 20  1  0
  5  6  2  0
  5  7  1  0
  7  8  1  0
  8  9  1  1
  8 10  1  0
  8 13  1  0
 10 11  1  0
 10 12  2  0
 13 14  2  0
 13 15  1  0
 15 16  1  0
 16 17  1  0
 17 18  1  0
 17 19  2  0
 20 21  1  0
 21 22  1  0
M  END
