
     RDKit          3D

 14 14  0  0  0  0  0  0  0  0999 V2000
    3.8000   -0.6880   -1.0520 N   0  0  0  0  0  0  0  0  0  0  0  0
    3.6770   -1.0160    0.1750 C   0  0  0  0  0  0  0  0  0  0  0  0
    2.3300   -1.0090    0.7640 C   0  0  0  0  0  0  0  0  0  0  0  0
    2.1750   -1.3420    2.0220 C   0  0  0  0  0  0  0  0  0  0  0  0
    3.2790   -1.7020    2.8050 O   0  0  0  0  0  0  0  0  0  0  0  0
    1.2180   -0.6580    0.0140 O   0  0  0  0  0  0  0  0  0  0  0  0
    0.5340    0.5580    0.2650 C   0  0  0  0  0  0  0  0  0  0  0  0
   -0.6230    0.6440   -0.7140 C   0  0  2  0  0  0  0  0  0  0  0  0
   -1.3540    1.8140   -0.5380 O   0  0  0  0  0  0  0  0  0  0  0  0
   -2.3190    1.8310   -1.5640 C   0  0  0  0  0  0  0  0  0  0  0  0
   -3.2930    0.6990   -1.3620 C   0  0  0  0  0  0  0  0  0  0  0  0
   -2.6270   -0.5150   -1.3300 O   0  0  0  0  0  0  0  0  0  0  0  0
   -1.5630   -0.5130   -0.4470 C   0  0  2  0  0  0  0  0  0  0  0  0
   -2.0410   -0.4130    0.9130 N   0  0  0  0  0  0  0  0  0  0  0  0
  1  2  2  0
  2  3  1  0
  3  4  2  3
  3  6  1  0
  4  5  1  0
  6  7  1  0
  8  7  1  1
  8  9  1  0
  8 13  1  0
  9 10  1  0
 10 11  1  0
 11 12  1  0
 12 13  1  0
 13 14  1  1
M  END
