
     RDKit          3D

 13 13  0  0  0  0  0  0  0  0999 V2000
    2.8520   -0.5410   -3.1280 N   0  0  0  0  0  0  0  0  0  0  0  0
    2.7480   -0.6470   -1.7190 C   0  0  0  0  0  0  0  0  0  0  0  0
    1.7640   -0.0590   -1.0700 C   0  0  0  0  0  0  0  0  0  0  0  0
    0.8410    0.6620   -1.8050 O   0  0  0  0  0  0  0  0  0  0  0  0
    1.6190   -0.1460    0.4060 C   0  0  0  0  0  0  0  0  0  0  0  0
    0.3660   -0.7520    0.8000 N   0  0  0  0  0  0  0  0  0  0  0  0
    0.3470   -0.7790    2.2560 C   0  0  0  0  0  0  0  0  0  0  0  0
   -0.5140    0.4060    2.6980 C   0  0  0  0  0  0  0  0  0  0  0  0
   -1.8420    0.2070    2.3890 O   0  0  0  0  0  0  0  0  0  0  0  0
   -1.9860   -0.2090    1.0740 C   0  0  1  0  0  0  0  0  0  0  0  0
   -3.1890    0.4210    0.4520 C   0  0  0  0  0  0  0  0  0  0  0  0
   -3.1320    1.8100    0.4340 O   0  0  0  0  0  0  0  0  0  0  0  0
   -0.7320    0.0010    0.2610 C   0  0  0  0  0  0  0  0  0  0  0  0
  1  2  1  0
  2  3  2  3
  3  4  1  0
  3  5  1  0
  5  6  1  0
  6  7  1  0
  6 13  1  0
  7  8  1  0
  8  9  1  0
  9 10  1  0
 10 11  1  6
 10 13  1  0
 11 12  1  0
M  END
