
     RDKit          3D

 26 27  0  0  0  0  0  0  0  0999 V2000
   -1.1010   -0.8890   -1.2180 C   0  0  0  0  0  0  0  0  0  0  0  0
   -0.6510   -0.0660   -0.3300 C   0  0  0  0  0  0  0  0  0  0  0  0
    0.7970   -0.1310    0.0110 C   0  0  0  0  0  0  0  0  0  0  0  0
    1.3040   -1.2610    0.3220 C   0  0  0  0  0  0  0  0  0  0  0  0
    0.4470   -2.8390    0.3930 S   0  0  0  0  0  0  0  0  0  0  0  0
    1.0870   -3.9860   -0.8520 C   0  0  0  0  0  0  0  0  0  0  0  0
    1.6520    1.0860   -0.0570 C   0  0  0  0  0  0  0  0  0  0  0  0
    3.0440    0.8480   -0.3790 C   0  0  0  0  0  0  0  0  0  0  0  0
    3.5020   -0.2970   -0.6030 O   0  0  0  0  0  0  0  0  0  0  0  0
    4.0350    1.8940   -0.4730 N   0  0  0  0  0  0  0  0  0  0  0  0
    5.3830    1.5430   -0.7980 C   0  0  0  0  0  0  0  0  0  0  0  0
    6.4830    2.7320   -0.9000 S   0  0  0  0  0  0  0  0  0  0  0  0
    5.7800    0.2410   -1.0270 O   0  0  0  0  0  0  0  0  0  0  0  0
    6.5570   -0.4470   -0.0710 C   0  0  0  0  0  0  0  0  0  0  0  0
    1.2500    2.3580    0.1210 C   0  0  0  0  0  0  0  0  0  0  0  0
   -0.1070    2.8540    0.4180 C   0  0  0  0  0  0  0  0  0  0  0  0
   -1.2910    2.2620    0.4310 C   0  0  0  0  0  0  0  0  0  0  0  0
   -2.3490    3.1360    0.7850 N   0  0  0  0  0  0  0  0  0  0  0  0
   -3.5080    2.6230    0.9160 C   0  0  0  0  0  0  0  0  0  0  0  0
   -3.8040    1.1850    0.7270 C   0  0  0  0  0  0  0  0  0  0  0  0
   -5.1790    0.7700    1.0170 C   0  0  0  0  0  0  0  0  0  0  0  0
   -6.3830    1.4260   -0.1200 Cl  0  0  0  0  0  0  0  0  0  0  0  0
   -2.8730    0.2970    0.3970 C   0  0  0  0  0  0  0  0  0  0  0  0
   -3.0630   -1.1090    0.1940 C   0  0  0  0  0  0  0  0  0  0  0  0
   -4.3080   -1.7440   -0.0020 N   0  0  0  0  0  0  0  0  0  0  0  0
   -1.5760    0.8550    0.2350 N   0  0  0  0  0  0  0  0  0  0  0  0
  1  2  2  0
  2  3  1  0
  2 26  1  0
  3  4  2  3
  3  7  1  0
  4  5  1  0
  5  6  1  0
  7  8  1  0
  7 15  2  0
  8  9  2  0
  8 10  1  0
 10 11  1  0
 11 12  2  0
 11 13  1  0
 13 14  1  0
 15 16  1  0
 16 17  2  0
 17 18  1  0
 17 26  1  0
 18 19  2  0
 19 20  1  0
 20 21  1  0
 20 23  2  0
 21 22  1  0
 23 24  1  0
 23 26  1  0
 24 25  1  0
M  CHG  1  25   1
M  END
