
     RDKit          3D

 14 15  0  0  0  0  0  0  0  0999 V2000
    3.6760   -0.0100   -0.1280 C   0  0  0  0  0  0  0  0  0  0  0  0
    2.6350   -1.0620   -0.4110 C   0  0  1  0  0  0  0  0  0  0  0  0
    2.2150   -1.7270    0.8100 N   0  0  0  0  0  0  0  0  0  0  0  0
    1.0790   -0.9860    1.2930 C   0  0  0  0  0  0  0  0  0  0  0  0
    0.6440   -0.2020    0.3440 C   0  0  0  0  0  0  0  0  0  0  0  0
   -0.5000    0.7230    0.4210 C   0  0  1  0  0  0  0  0  0  0  0  0
   -0.0610    2.0280    0.1880 O   0  0  0  0  0  0  0  0  0  0  0  0
   -1.4980    0.3590   -0.6800 C   0  0  2  0  0  0  0  0  0  0  0  0
   -2.6680    1.2920   -0.6090 C   0  0  0  0  0  0  0  0  0  0  0  0
   -3.7690    0.4240   -0.2280 N   0  0  0  0  0  0  0  0  0  0  0  0
   -3.2990   -0.9020   -0.0250 C   0  0  0  0  0  0  0  0  0  0  0  0
   -3.8920   -1.8860    0.4860 O   0  0  0  0  0  0  0  0  0  0  0  0
   -1.9860   -0.9430   -0.5150 O   0  0  0  0  0  0  0  0  0  0  0  0
    1.4390   -0.3700   -0.7880 O   0  0  0  0  0  0  0  0  0  0  0  0
  2  1  1  1
  2  3  1  0
  2 14  1  0
  3  4  1  0
  4  5  2  0
  5  6  1  0
  5 14  1  0
  6  7  1  6
  6  8  1  0
  8  9  1  1
  8 13  1  0
  9 10  1  0
 10 11  1  0
 11 12  2  0
 11 13  1  0
M  END
