
     RDKit          3D

 14 14  0  0  0  0  0  0  0  0999 V2000
    3.9230   -1.1750    0.4590 N   0  0  0  0  0  0  0  0  0  0  0  0
    2.9460   -0.5250   -0.3450 C   0  0  0  0  0  0  0  0  0  0  0  0
    2.9210   -0.5600   -1.5890 O   0  0  0  0  0  0  0  0  0  0  0  0
    1.9590    0.1950    0.3130 O   0  0  0  0  0  0  0  0  0  0  0  0
    0.9330    0.8840   -0.3940 C   0  0  2  0  0  0  0  0  0  0  0  0
    0.9430    2.3120    0.0830 C   0  0  0  0  0  0  0  0  0  0  0  0
   -0.0190    3.0910   -0.5360 O   0  0  0  0  0  0  0  0  0  0  0  0
   -0.3850    0.2470    0.0840 C   0  0  2  0  0  0  0  0  0  0  0  0
   -0.2570   -1.2390    0.0410 C   0  0  0  0  0  0  0  0  0  0  0  0
   -1.2470   -1.7850    0.9850 N   0  0  0  0  0  0  0  0  0  0  0  0
   -2.5930   -1.2980    1.0250 C   0  0  0  0  0  0  0  0  0  0  0  0
   -3.2090   -0.4190    0.2200 C   0  0  0  0  0  0  0  0  0  0  0  0
   -2.5140    0.2270   -0.9280 C   0  0  0  0  0  0  0  0  0  0  0  0
   -1.3890    0.8510   -0.5440 O   0  0  0  0  0  0  0  0  0  0  0  0
  1  2  1  0
  2  3  2  0
  2  4  1  0
  4  5  1  0
  5  6  1  1
  5  8  1  0
  6  7  1  0
  8  9  1  6
  8 14  1  0
  9 10  1  0
 10 11  1  0
 11 12  2  0
 12 13  1  0
 13 14  1  0
M  END
