
     RDKit          3D

  6  5  0  0  0  0  0  0  0  0999 V2000
    2.7060    0.2990   -0.0420 C   0  0  0  0  0  0  0  0  0  0  0  0
    1.4830   -0.0320   -0.4140 C   0  0  0  0  0  0  0  0  0  0  0  0
    0.3430    0.2680    0.4380 C   0  0  0  0  0  0  0  0  0  0  0  0
   -0.8640   -0.0700    0.0480 C   0  0  0  0  0  0  0  0  0  0  0  0
   -1.0240   -0.7200   -1.1960 N   0  0  0  0  0  0  0  0  0  0  0  0
   -1.9630    0.2360    0.8990 N   0  0  0  0  0  0  0  0  0  0  0  0
  1  2  2  0
  2  3  1  0
  3  4  2  3
  4  5  1  0
  4  6  1  0
M  CHG  1   6   1
M  END
