
     RDKit          3D

  6  5  0  0  0  0  0  0  0  0999 V2000
    0.5190    1.2520    2.2520 C   0  0  0  0  0  0  0  0  0  0  0  0
   -0.3450    0.3310    1.9220 C   0  0  0  0  0  0  0  0  0  0  0  0
   -0.3070   -0.2650    0.6540 N   0  0  0  0  0  0  0  0  0  0  0  0
   -0.0410    0.3990   -0.4220 C   0  0  0  0  0  0  0  0  0  0  0  0
    0.0040   -0.2030   -1.7540 C   0  0  0  0  0  0  0  0  0  0  0  0
   -0.1910   -1.6000   -1.8030 N   0  0  0  0  0  0  0  0  0  0  0  0
  1  2  2  0
  2  3  1  0
  3  4  2  3
  4  5  1  0
  5  6  1  0
M  CHG  1   3   1
M  END
