
     RDKit          3D

 37 40  0  0  0  0  0  0  0  0999 V2000
    6.4830    3.9560    0.4860 C   0  0  0  0  0  0  0  0  0  0  0  0
    6.2510    3.2330    1.7710 C   0  0  0  0  0  0  0  0  0  0  0  0
    5.5190    2.0760    1.6660 O   0  0  0  0  0  0  0  0  0  0  0  0
    4.2680    2.3180    1.1510 C   0  0  0  0  0  0  0  0  0  0  0  0
    3.4890    0.9980    1.0560 C   0  0  0  0  0  0  0  0  0  0  0  0
    2.1130    1.2370    0.4930 C   0  0  2  0  0  0  0  0  0  0  0  0
    1.4620    2.1680    1.4240 N   0  0  0  0  0  0  0  0  0  0  0  0
    1.2950    0.0140    0.2780 C   0  0  0  0  0  0  0  0  0  0  0  0
    1.8690   -0.9660   -0.6730 C   0  0  0  0  0  0  0  0  0  0  0  0
    2.9060   -0.6340   -1.2690 O   0  0  0  0  0  0  0  0  0  0  0  0
    1.2380   -2.2770   -0.9010 C   0  0  0  0  0  0  0  0  0  0  0  0
    1.7770   -3.1230   -1.7490 C   0  0  0  0  0  0  0  0  0  0  0  0
    3.0260   -2.7780   -2.4950 C   0  0  0  0  0  0  0  0  0  0  0  0
    1.2550   -4.4360   -2.0240 N   0  0  0  0  0  0  0  0  0  0  0  0
    0.0940   -4.8540   -1.3480 C   0  0  0  0  0  0  0  0  0  0  0  0
   -0.4030   -6.1230   -1.5950 C   0  0  0  0  0  0  0  0  0  0  0  0
   -1.5160   -6.5450   -0.9340 C   0  0  0  0  0  0  0  0  0  0  0  0
   -2.1400   -5.6970   -0.0180 C   0  0  0  0  0  0  0  0  0  0  0  0
   -1.6270   -4.4400    0.2100 C   0  0  0  0  0  0  0  0  0  0  0  0
   -0.4970   -3.9920   -0.4520 C   0  0  0  0  0  0  0  0  0  0  0  0
   -0.0080   -2.6310   -0.1750 C   0  0  2  0  0  0  0  0  0  0  0  0
   -1.1330   -1.7000   -0.5250 C   0  0  0  0  0  0  0  0  0  0  0  0
   -1.3880   -1.2920   -1.8170 C   0  0  0  0  0  0  0  0  0  0  0  0
   -2.4370   -0.4360   -2.0720 C   0  0  0  0  0  0  0  0  0  0  0  0
   -3.2760    0.0500   -1.0540 C   0  0  0  0  0  0  0  0  0  0  0  0
   -4.3110    0.9080   -1.3900 O   0  0  0  0  0  0  0  0  0  0  0  0
   -4.4300    2.1780   -0.9100 C   0  0  0  0  0  0  0  0  0  0  0  0
   -3.7130    3.2150   -1.5260 C   0  0  0  0  0  0  0  0  0  0  0  0
   -3.8010    4.5160   -1.0780 C   0  0  0  0  0  0  0  0  0  0  0  0
   -4.5880    4.8620   -0.0150 C   0  0  0  0  0  0  0  0  0  0  0  0
   -4.6810    6.1680    0.4410 O   0  0  0  0  0  0  0  0  0  0  0  0
   -5.3030    3.8670    0.6090 C   0  0  0  0  0  0  0  0  0  0  0  0
   -5.2140    2.5520    0.1560 C   0  0  0  0  0  0  0  0  0  0  0  0
   -3.0250   -0.3540    0.2370 C   0  0  0  0  0  0  0  0  0  0  0  0
   -3.8250    0.0990    1.2770 O   0  0  0  0  0  0  0  0  0  0  0  0
   -3.5220   -0.3480    2.5840 C   0  0  0  0  0  0  0  0  0  0  0  0
   -1.9590   -1.2180    0.4610 C   0  0  0  0  0  0  0  0  0  0  0  0
  1  2  1  0
  2  3  1  0
  3  4  1  0
  4  5  1  0
  5  6  1  0
  6  7  1  1
  6  8  1  0
  8  9  1  0
  9 10  2  0
  9 11  1  0
 11 12  2  0
 11 21  1  0
 12 13  1  0
 12 14  1  0
 14 15  1  0
 15 16  2  0
 15 20  1  0
 16 17  1  0
 17 18  2  0
 18 19  1  0
 19 20  2  0
 20 21  1  0
 21 22  1  6
 22 23  2  0
 22 37  1  0
 23 24  1  0
 24 25  2  0
 25 26  1  0
 25 34  1  0
 26 27  1  0
 27 28  2  0
 27 33  1  0
 28 29  1  0
 29 30  2  0
 30 31  1  0
 30 32  1  0
 32 33  2  0
 34 35  1  0
 34 37  2  0
 35 36  1  0
M  END
