
     RDKit          3D

 37 40  0  0  0  0  0  0  0  0999 V2000
   -6.8200    2.8780   -0.5410 N   0  0  0  0  0  0  0  0  0  0  0  0
   -5.9270    3.6100   -0.6650 C   0  0  0  0  0  0  0  0  0  0  0  0
   -4.7740    4.5320   -0.8300 C   0  0  0  0  0  0  0  0  0  0  0  0
   -3.6250    3.7700   -1.2680 N   0  0  0  0  0  0  0  0  0  0  0  0
   -3.0880    2.7360   -0.4800 C   0  0  0  0  0  0  0  0  0  0  0  0
   -3.6350    2.4980    0.6300 O   0  0  0  0  0  0  0  0  0  0  0  0
   -1.9220    1.8970   -0.8510 C   0  0  0  0  0  0  0  0  0  0  0  0
   -1.5250    0.9770    0.2770 C   0  0  2  0  0  0  0  0  0  0  0  0
   -0.3850    0.0990   -0.0250 C   0  0  0  0  0  0  0  0  0  0  0  0
   -0.4490   -0.9070   -0.9770 C   0  0  0  0  0  0  0  0  0  0  0  0
    0.6260   -1.7140   -1.2390 C   0  0  0  0  0  0  0  0  0  0  0  0
    1.8400   -1.5690   -0.5670 C   0  0  0  0  0  0  0  0  0  0  0  0
    2.8870   -2.4250   -0.8830 O   0  0  0  0  0  0  0  0  0  0  0  0
    4.1390   -2.3450   -0.2880 C   0  0  0  0  0  0  0  0  0  0  0  0
    4.7930   -1.0220   -0.5930 C   0  0  0  0  0  0  0  0  0  0  0  0
    4.2600   -0.1540   -1.5390 C   0  0  0  0  0  0  0  0  0  0  0  0
    5.1140    0.9160   -1.5380 C   0  0  0  0  0  0  0  0  0  0  0  0
    6.1170    0.6540   -0.6000 C   0  0  0  0  0  0  0  0  0  0  0  0
    7.2200    1.5740   -0.3140 C   0  0  0  0  0  0  0  0  0  0  0  0
    8.1630    1.3660    0.5540 C   0  0  0  0  0  0  0  0  0  0  0  0
    8.3350    0.1990    1.4210 C   0  0  0  0  0  0  0  0  0  0  0  0
    9.6730   -0.4950    1.1130 C   0  0  0  0  0  0  0  0  0  0  0  0
    9.8410   -1.5900    1.9250 O   0  0  0  0  0  0  0  0  0  0  0  0
    5.8670   -0.5040   -0.0810 O   0  0  0  0  0  0  0  0  0  0  0  0
    1.9030   -0.5680    0.3780 C   0  0  0  0  0  0  0  0  0  0  0  0
    0.8200    0.2420    0.6410 C   0  0  0  0  0  0  0  0  0  0  0  0
   -2.6980    0.2680    0.8460 C   0  0  0  0  0  0  0  0  0  0  0  0
   -2.8240    0.0850    2.1880 C   0  0  0  0  0  0  0  0  0  0  0  0
   -3.9320   -0.5920    2.6640 C   0  0  0  0  0  0  0  0  0  0  0  0
   -4.8750   -1.0610    1.7690 C   0  0  0  0  0  0  0  0  0  0  0  0
   -4.7390   -0.8710    0.4110 C   0  0  0  0  0  0  0  0  0  0  0  0
   -3.6280   -0.1930   -0.0520 C   0  0  0  0  0  0  0  0  0  0  0  0
   -5.7480   -1.3690   -0.5660 C   0  0  2  0  0  0  0  0  0  0  0  0
   -6.6040   -0.3100   -0.8840 O   0  0  0  0  0  0  0  0  0  0  0  0
   -6.5750   -2.5010   -0.0590 C   0  0  0  0  0  0  0  0  0  0  0  0
   -6.1630   -3.0250    1.2910 C   0  0  0  0  0  0  0  0  0  0  0  0
   -6.0960   -1.8060    2.2220 C   0  0  0  0  0  0  0  0  0  0  0  0
  1  2  3  0
  2  3  1  0
  3  4  1  0
  4  5  1  0
  5  6  2  0
  5  7  1  0
  8  7  1  6
  8  9  1  0
  8 27  1  0
  9 10  2  0
  9 26  1  0
 10 11  1  0
 11 12  2  0
 12 13  1  0
 12 25  1  0
 13 14  1  0
 14 15  1  0
 15 16  2  0
 15 24  1  0
 16 17  1  0
 17 18  2  0
 18 19  1  0
 18 24  1  0
 19 20  2  3
 20 21  1  0
 21 22  1  0
 22 23  1  0
 25 26  2  0
 27 28  2  0
 27 32  1  0
 28 29  1  0
 29 30  2  0
 30 31  1  0
 30 37  1  0
 31 32  2  0
 31 33  1  0
 33 34  1  1
 33 35  1  0
 35 36  1  0
 36 37  1  0
M  END
