
     RDKit          3D

 38 41  0  0  0  0  0  0  0  0999 V2000
    4.9640   -0.8010   -3.5560 C   0  0  0  0  0  0  0  0  0  0  0  0
    4.8840   -1.2190   -2.0770 C   0  0  0  0  0  0  0  0  0  0  0  0
    6.1010   -1.7780   -1.7130 C   0  0  0  0  0  0  0  0  0  0  0  0
    6.4630   -1.1500   -0.3370 C   0  0  0  0  0  0  0  0  0  0  0  0
    7.8300   -1.4190    0.1360 C   0  0  0  0  0  0  0  0  0  0  0  0
    8.9410   -0.8220   -0.7100 C   0  0  0  0  0  0  0  0  0  0  0  0
    3.6170   -0.7350   -1.6100 C   0  0  0  0  0  0  0  0  0  0  0  0
    4.0230    0.2160   -0.5960 O   0  0  0  0  0  0  0  0  0  0  0  0
    3.0950    1.1310   -0.1240 C   0  0  0  0  0  0  0  0  0  0  0  0
    1.7920    1.0490   -0.5980 C   0  0  0  0  0  0  0  0  0  0  0  0
    0.8600    2.0200   -0.1220 C   0  0  0  0  0  0  0  0  0  0  0  0
   -0.5000    2.1580   -0.6440 C   0  0  2  0  0  0  0  0  0  0  0  0
   -1.2300    3.0770    0.2250 O   0  0  0  0  0  0  0  0  0  0  0  0
   -1.3390    1.0200   -0.8120 C   0  0  2  0  0  0  0  0  0  0  0  0
   -1.4670    0.2610    0.5000 C   0  0  0  0  0  0  0  0  0  0  0  0
   -1.5570   -0.3710    1.5580 N   0  0  0  0  0  0  0  0  0  0  0  0
   -1.2710   -0.0160   -1.8340 C   0  0  0  0  0  0  0  0  0  0  0  0
   -2.6240   -0.7490   -2.1000 C   0  0  0  0  0  0  0  0  0  0  0  0
   -3.5130   -0.6670   -0.9570 C   0  0  0  0  0  0  0  0  0  0  0  0
   -4.1220   -1.7100   -0.3480 C   0  0  0  0  0  0  0  0  0  0  0  0
   -4.6820   -1.5710    0.8750 C   0  0  0  0  0  0  0  0  0  0  0  0
   -4.7370   -0.4160    1.6850 C   0  0  0  0  0  0  0  0  0  0  0  0
   -5.2210   -0.2090    2.8850 O   0  0  0  0  0  0  0  0  0  0  0  0
   -4.3390   -0.3830    4.0160 C   0  0  0  0  0  0  0  0  0  0  0  0
   -4.0830    0.6810    0.9280 C   0  0  0  0  0  0  0  0  0  0  0  0
   -4.1410    1.8650    1.7490 O   0  0  0  0  0  0  0  0  0  0  0  0
   -5.0980    2.8460    1.6240 C   0  0  0  0  0  0  0  0  0  0  0  0
   -6.5130    2.4450    1.8620 C   0  0  0  0  0  0  0  0  0  0  0  0
   -3.5650    0.5520   -0.1910 C   0  0  0  0  0  0  0  0  0  0  0  0
   -2.8240    1.6160   -0.9650 C   0  0  0  0  0  0  0  0  0  0  0  0
   -5.4040   -2.7520    1.4620 C   0  0  0  0  0  0  0  0  0  0  0  0
   -4.7060   -3.9170    1.2990 O   0  0  0  0  0  0  0  0  0  0  0  0
   -3.8260   -3.9890    0.2500 C   0  0  0  0  0  0  0  0  0  0  0  0
   -4.2220   -3.0670   -0.9300 C   0  0  0  0  0  0  0  0  0  0  0  0
    1.3410    2.9020    0.7550 C   0  0  0  0  0  0  0  0  0  0  0  0
    2.6040    3.0210    1.2400 C   0  0  0  0  0  0  0  0  0  0  0  0
    3.5500    2.0690    0.7690 C   0  0  0  0  0  0  0  0  0  0  0  0
    4.9000    2.2540    1.1720 N   0  0  0  0  0  0  0  0  0  0  0  0
  1  2  2  0
  2  3  1  0
  2  7  1  0
  3  4  1  0
  4  5  1  0
  5  6  1  0
  7  8  1  0
  8  9  1  0
  9 10  2  0
  9 37  1  0
 10 11  1  0
 11 12  1  0
 11 35  2  0
 12 13  1  1
 12 14  1  0
 14 15  1  1
 14 17  1  0
 14 30  1  0
 15 16  3  0
 17 18  1  0
 18 19  1  0
 19 20  2  0
 19 29  1  0
 20 21  1  0
 20 34  1  0
 21 22  2  0
 21 31  1  0
 22 23  1  0
 22 25  1  0
 23 24  1  0
 25 26  1  0
 25 29  2  0
 26 27  1  0
 27 28  1  0
 29 30  1  0
 31 32  1  0
 32 33  1  0
 33 34  1  0
 35 36  1  0
 36 37  2  0
 37 38  1  0
M  END
