
     RDKit          3D

 38 41  0  0  0  0  0  0  0  0999 V2000
    2.3690    0.6240    1.1370 C   0  0  0  0  0  0  0  0  0  0  0  0
    1.5280    0.8270   -0.1470 C   0  0  2  0  0  0  0  0  0  0  0  0
    0.4630    1.7690    0.2560 C   0  0  0  0  0  0  0  0  0  0  0  0
    1.1300   -0.5280   -0.5720 C   0  0  0  0  0  0  0  0  0  0  0  0
   -0.0310   -1.1070   -0.6000 C   0  0  0  0  0  0  0  0  0  0  0  0
   -1.2610   -0.5120   -0.2050 N   0  0  0  0  0  0  0  0  0  0  0  0
   -1.5710   -0.5340    1.1850 C   0  0  0  0  0  0  0  0  0  0  0  0
   -0.7250   -1.1020    2.1020 C   0  0  0  0  0  0  0  0  0  0  0  0
   -0.9780   -1.1410    3.4470 C   0  0  0  0  0  0  0  0  0  0  0  0
   -2.1410   -0.5860    3.9220 C   0  0  0  0  0  0  0  0  0  0  0  0
   -2.9950   -0.0150    3.0070 C   0  0  0  0  0  0  0  0  0  0  0  0
   -2.7590    0.0340    1.6600 C   0  0  0  0  0  0  0  0  0  0  0  0
   -3.6230    0.6050    0.7790 O   0  0  0  0  0  0  0  0  0  0  0  0
   -4.8400    1.2320    0.9870 C   0  0  1  0  0  0  0  0  0  0  0  0
   -4.8110    2.7010    0.5480 C   0  0  0  0  0  0  0  0  0  0  0  0
   -4.8560    2.7900   -0.8590 O   0  0  0  0  0  0  0  0  0  0  0  0
   -5.8680    2.1130   -1.5250 C   0  0  0  0  0  0  0  0  0  0  0  0
   -6.2980    2.5640   -2.7850 C   0  0  0  0  0  0  0  0  0  0  0  0
   -7.2890    1.9030   -3.4430 C   0  0  0  0  0  0  0  0  0  0  0  0
   -7.8750    0.7820   -2.8640 C   0  0  0  0  0  0  0  0  0  0  0  0
   -7.4380    0.3550   -1.6270 C   0  0  0  0  0  0  0  0  0  0  0  0
   -6.4300    1.0150   -0.9410 C   0  0  0  0  0  0  0  0  0  0  0  0
   -6.0070    0.5180    0.3710 C   0  0  2  0  0  0  0  0  0  0  0  0
   -7.1410    0.5630    1.2060 O   0  0  0  0  0  0  0  0  0  0  0  0
    0.1720   -2.5020   -1.0070 C   0  0  0  0  0  0  0  0  0  0  0  0
   -0.7910   -3.3240   -1.1300 O   0  0  0  0  0  0  0  0  0  0  0  0
    1.5170   -2.6770   -1.2000 O   0  0  0  0  0  0  0  0  0  0  0  0
    2.1120   -1.4330   -1.2200 C   0  0  2  0  0  0  0  0  0  0  0  0
    3.4770   -1.3710   -0.7280 C   0  0  0  0  0  0  0  0  0  0  0  0
    4.1130   -0.2990   -0.8270 O   0  0  0  0  0  0  0  0  0  0  0  0
    4.1390   -2.4750   -0.1340 N   0  0  0  0  0  0  0  0  0  0  0  0
    5.4820   -2.3340    0.3270 C   0  0  0  0  0  0  0  0  0  0  0  0
    6.4470   -1.9530   -0.7370 C   0  0  0  0  0  0  0  0  0  0  0  0
    6.1250   -1.7680   -1.9230 O   0  0  0  0  0  0  0  0  0  0  0  0
    7.7950   -1.7990   -0.3540 N   0  0  0  0  0  0  0  0  0  0  0  0
    8.8700   -1.4320   -1.2370 C   0  0  0  0  0  0  0  0  0  0  0  0
    8.6000   -0.0710   -1.8360 C   0  0  0  0  0  0  0  0  0  0  0  0
    8.4570    1.1870   -0.5250 S   0  0  0  0  0  0  0  0  0  0  0  0
  2  1  1  1
  2  3  1  0
  2  4  1  0
  4  5  2  0
  4 28  1  0
  5  6  1  0
  5 25  1  0
  6  7  1  0
  7  8  2  0
  7 12  1  0
  8  9  1  0
  9 10  2  0
 10 11  1  0
 11 12  2  0
 12 13  1  0
 14 13  1  6
 14 15  1  0
 14 23  1  0
 15 16  1  0
 16 17  1  0
 17 18  2  0
 17 22  1  0
 18 19  1  0
 19 20  2  0
 20 21  1  0
 21 22  2  0
 22 23  1  0
 23 24  1  1
 25 26  2  0
 25 27  1  0
 27 28  1  0
 28 29  1  1
 29 30  2  0
 29 31  1  0
 31 32  1  0
 32 33  1  0
 33 34  2  0
 33 35  1  0
 35 36  1  0
 36 37  1  0
 37 38  1  0
M  END
