
     RDKit          3D

 38 41  0  0  0  0  0  0  0  0999 V2000
   -4.0490   -1.1230    2.9100 C   0  0  0  0  0  0  0  0  0  0  0  0
   -4.9010   -1.7730    1.9200 C   0  0  0  0  0  0  0  0  0  0  0  0
   -5.7360   -2.6570    2.4350 O   0  0  0  0  0  0  0  0  0  0  0  0
   -4.9900   -1.6110    0.5380 N   0  0  0  0  0  0  0  0  0  0  0  0
   -6.1520   -2.1050   -0.1940 C   0  0  0  0  0  0  0  0  0  0  0  0
   -7.2290   -2.5990    0.4900 C   0  0  0  0  0  0  0  0  0  0  0  0
   -8.3550   -3.0710   -0.2110 C   0  0  0  0  0  0  0  0  0  0  0  0
   -8.3800   -3.0380   -1.5750 C   0  0  0  0  0  0  0  0  0  0  0  0
   -7.3070   -2.5410   -2.2500 C   0  0  0  0  0  0  0  0  0  0  0  0
   -6.1800   -2.0660   -1.5570 C   0  0  0  0  0  0  0  0  0  0  0  0
   -5.1230   -1.5630   -2.2840 O   0  0  0  0  0  0  0  0  0  0  0  0
   -3.9970   -1.0790   -1.6630 C   0  0  0  0  0  0  0  0  0  0  0  0
   -2.9500   -0.5810   -2.4100 C   0  0  0  0  0  0  0  0  0  0  0  0
   -1.8050   -0.0950   -1.8330 C   0  0  0  0  0  0  0  0  0  0  0  0
   -1.7160   -0.1110   -0.4630 C   0  0  0  0  0  0  0  0  0  0  0  0
   -0.5530    0.3850    0.2540 C   0  0  0  0  0  0  0  0  0  0  0  0
   -0.3960    0.0570    1.4510 O   0  0  0  0  0  0  0  0  0  0  0  0
    0.3880    1.2270   -0.3910 N   0  0  0  0  0  0  0  0  0  0  0  0
    1.5730    1.7420    0.3050 C   0  0  1  0  0  0  0  0  0  0  0  0
    2.7910    1.1770   -0.3420 C   0  0  2  0  0  0  0  0  0  0  0  0
    2.9570    1.4620   -1.6740 O   0  0  0  0  0  0  0  0  0  0  0  0
    2.6930   -0.3540   -0.2550 C   0  0  0  0  0  0  0  0  0  0  0  0
    3.9230   -0.9100   -0.9160 C   0  0  0  0  0  0  0  0  0  0  0  0
    5.2170   -0.5020   -0.2830 C   0  0  0  0  0  0  0  0  0  0  0  0
    5.3090   -1.0430    1.4020 S   0  0  0  0  0  0  0  0  0  0  0  0
    4.3310   -0.3200    2.2680 O   0  0  0  0  0  0  0  0  0  0  0  0
    5.1770   -2.8250    1.4470 C   0  0  0  0  0  0  0  0  0  0  0  0
    6.3260   -3.4310    0.6380 C   0  0  0  0  0  0  0  0  0  0  0  0
    6.1920   -4.8100    0.6930 O   0  0  0  0  0  0  0  0  0  0  0  0
    1.5500    3.2200    0.4330 C   0  0  2  0  0  0  0  0  0  0  0  0
    1.5010    3.8590   -0.9090 C   0  0  0  0  0  0  0  0  0  0  0  0
    1.3420    5.3680   -0.8250 C   0  0  0  0  0  0  0  0  0  0  0  0
    2.4950    5.8570   -0.0150 C   0  0  0  0  0  0  0  0  0  0  0  0
    3.1880    6.8570   -0.4070 O   0  0  0  0  0  0  0  0  0  0  0  0
    2.7880    5.1800    1.1890 N   0  0  0  0  0  0  0  0  0  0  0  0
    2.6280    3.7680    1.3250 C   0  0  0  0  0  0  0  0  0  0  0  0
   -2.7850   -0.6170    0.2920 C   0  0  0  0  0  0  0  0  0  0  0  0
   -3.9240   -1.0990   -0.2610 C   0  0  0  0  0  0  0  0  0  0  0  0
  1  2  1  0
  2  3  2  0
  2  4  1  0
  4  5  1  0
  4 38  1  0
  5  6  2  0
  5 10  1  0
  6  7  1  0
  7  8  2  0
  8  9  1  0
  9 10  2  0
 10 11  1  0
 11 12  1  0
 12 13  2  0
 12 38  1  0
 13 14  1  0
 14 15  2  0
 15 16  1  0
 15 37  1  0
 16 17  2  0
 16 18  1  0
 19 18  1  6
 19 20  1  0
 19 30  1  0
 20 21  1  6
 20 22  1  0
 22 23  1  0
 23 24  1  0
 25 24  1  6
 25 26  2  0
 25 27  1  0
 27 28  1  0
 28 29  1  0
 30 31  1  6
 30 36  1  0
 31 32  1  0
 32 33  1  0
 33 34  2  0
 33 35  1  0
 35 36  1  0
 37 38  2  0
M  END
