
     RDKit          3D

 40 42  0  0  0  0  0  0  0  0999 V2000
    6.4580    4.3340    2.2330 C   0  0  0  0  0  0  0  0  0  0  0  0
    5.5640    3.3500    1.5490 C   0  0  0  0  0  0  0  0  0  0  0  0
    4.3410    3.5420    1.6450 O   0  0  0  0  0  0  0  0  0  0  0  0
    6.1100    2.2640    0.8360 N   0  0  0  0  0  0  0  0  0  0  0  0
    5.3490    1.2840    0.1620 C   0  0  0  0  0  0  0  0  0  0  0  0
    3.9810    1.2140    0.1320 C   0  0  0  0  0  0  0  0  0  0  0  0
    3.3340    0.1840   -0.5670 C   0  0  0  0  0  0  0  0  0  0  0  0
    4.0190   -0.7920   -1.2460 C   0  0  0  0  0  0  0  0  0  0  0  0
    3.3670   -1.8670   -2.0090 C   0  0  0  0  0  0  0  0  0  0  0  0
    1.9130   -1.7480   -1.8330 N   0  0  0  0  0  0  0  0  0  0  0  0
    1.3030   -2.0870   -0.6010 C   0  0  0  0  0  0  0  0  0  0  0  0
    2.1080   -2.5120    0.4390 C   0  0  0  0  0  0  0  0  0  0  0  0
    1.6160   -2.8950    1.6710 C   0  0  0  0  0  0  0  0  0  0  0  0
    2.7160   -3.4070    2.9100 Cl  0  0  0  0  0  0  0  0  0  0  0  0
    0.2490   -2.8430    1.8430 C   0  0  0  0  0  0  0  0  0  0  0  0
   -0.5740   -2.4220    0.8200 C   0  0  0  0  0  0  0  0  0  0  0  0
   -0.0560   -2.0340   -0.4300 C   0  0  0  0  0  0  0  0  0  0  0  0
   -0.9280   -1.5950   -1.4590 N   0  0  0  0  0  0  0  0  0  0  0  0
   -2.3480   -1.6540   -1.4660 C   0  0  2  0  0  0  0  0  0  0  0  0
   -2.9540   -1.2880   -2.7950 C   0  0  0  0  0  0  0  0  0  0  0  0
   -2.9430   -0.6350   -0.4900 C   0  0  0  0  0  0  0  0  0  0  0  0
   -2.1230    0.2480   -0.0500 C   0  0  0  0  0  0  0  0  0  0  0  0
   -2.2080    1.3580    0.8530 C   0  0  0  0  0  0  0  0  0  0  0  0
   -1.1120    2.1140    1.0940 C   0  0  0  0  0  0  0  0  0  0  0  0
    0.1380    1.7580    0.4100 C   0  0  0  0  0  0  0  0  0  0  0  0
   -1.1900    3.2460    2.0120 C   0  0  0  0  0  0  0  0  0  0  0  0
   -2.5080    3.4330    2.5800 N   0  0  0  0  0  0  0  0  0  0  0  0
   -4.3850   -0.7110   -0.2910 C   0  0  0  0  0  0  0  0  0  0  0  0
   -5.0450   -1.7720   -0.8040 C   0  0  0  0  0  0  0  0  0  0  0  0
   -6.4770   -1.9600   -0.6420 C   0  0  0  0  0  0  0  0  0  0  0  0
   -7.2290   -3.3530   -1.3820 S   0  0  1  0  0  0  0  0  0  0  0  0
   -7.4000   -3.0970   -2.8390 O   0  0  0  0  0  0  0  0  0  0  0  0
   -6.4200   -4.6030   -1.1670 O   0  0  0  0  0  0  0  0  0  0  0  0
   -7.1180   -1.0640    0.0540 C   0  0  0  0  0  0  0  0  0  0  0  0
   -6.5090    0.0400    0.6530 N   0  0  0  0  0  0  0  0  0  0  0  0
   -5.2180    0.3770    0.1640 C   0  0  0  0  0  0  0  0  0  0  0  0
    5.4050   -0.7280   -1.2210 C   0  0  0  0  0  0  0  0  0  0  0  0
    6.3800   -1.9270   -2.0630 Cl  0  0  0  0  0  0  0  0  0  0  0  0
    6.0490    0.2880   -0.5310 C   0  0  0  0  0  0  0  0  0  0  0  0
    7.5400    0.3640   -0.5000 C   0  0  0  0  0  0  0  0  0  0  0  0
  1  2  1  0
  2  3  2  0
  2  4  1  0
  4  5  1  0
  5  6  2  0
  5 39  1  0
  6  7  1  0
  7  8  2  0
  8  9  1  0
  8 37  1  0
  9 10  1  0
 10 11  1  0
 11 12  2  0
 11 17  1  0
 12 13  1  0
 13 14  1  0
 13 15  2  0
 15 16  1  0
 16 17  2  0
 17 18  1  0
 18 19  1  0
 19 20  1  6
 19 21  1  0
 21 22  2  3
 21 28  1  0
 22 23  1  0
 23 24  2  3
 24 25  1  0
 24 26  1  0
 26 27  1  0
 28 29  2  0
 28 36  1  0
 29 30  1  0
 31 30  1  6
 30 34  2  0
 31 32  2  0
 31 33  2  0
 34 35  1  0
 35 36  1  0
 37 38  1  0
 37 39  2  0
 39 40  1  0
M  CHG  2  27   1  35   1
M  END
