
     RDKit          3D

 40 43  0  0  0  0  0  0  0  0999 V2000
    6.7910    1.2400   -3.4300 C   0  0  0  0  0  0  0  0  0  0  0  0
    5.7200    0.4070   -2.7330 C   0  0  0  0  0  0  0  0  0  0  0  0
    4.9580    1.3080   -1.8990 N   0  0  0  0  0  0  0  0  0  0  0  0
    3.8320    0.6380   -1.2360 C   0  0  1  0  0  0  0  0  0  0  0  0
    3.4300   -0.5790   -1.9710 C   0  0  0  0  0  0  0  0  0  0  0  0
    2.3190   -1.2950   -1.4220 N   0  0  0  0  0  0  0  0  0  0  0  0
    1.0160   -0.7140   -1.2560 C   0  0  0  0  0  0  0  0  0  0  0  0
    0.9170    0.4760   -1.6330 O   0  0  0  0  0  0  0  0  0  0  0  0
   -0.0930   -1.4730   -0.6900 C   0  0  0  0  0  0  0  0  0  0  0  0
   -1.4020   -0.6900   -0.5890 C   0  0  1  0  0  0  0  0  0  0  0  0
   -2.3630   -1.6450   -0.0070 N   0  0  0  0  0  0  0  0  0  0  0  0
   -3.4870   -2.1200   -0.7290 C   0  0  0  0  0  0  0  0  0  0  0  0
   -3.7040   -1.7450   -1.8930 O   0  0  0  0  0  0  0  0  0  0  0  0
   -4.4590   -3.0830   -0.1400 C   0  0  0  0  0  0  0  0  0  0  0  0
   -4.0030   -3.9860    0.7080 C   0  0  0  0  0  0  0  0  0  0  0  0
   -5.3920   -4.9330    1.2030 S   0  0  0  0  0  0  0  0  0  0  0  0
   -6.5320   -4.0080    0.1930 C   0  0  0  0  0  0  0  0  0  0  0  0
   -5.7800   -3.0970   -0.4070 C   0  0  0  0  0  0  0  0  0  0  0  0
   -6.5100   -2.1610   -1.3480 C   0  0  0  0  0  0  0  0  0  0  0  0
   -7.9010   -2.2140   -1.2550 N   0  0  0  0  0  0  0  0  0  0  0  0
   -8.5080   -2.7160   -0.0700 C   0  0  0  0  0  0  0  0  0  0  0  0
   -8.0420   -4.1780    0.0220 C   0  0  0  0  0  0  0  0  0  0  0  0
   -1.1980    0.3420    0.4720 C   0  0  0  0  0  0  0  0  0  0  0  0
   -1.1720   -0.0830    1.6420 O   0  0  0  0  0  0  0  0  0  0  0  0
   -1.0450    1.7100    0.2110 N   0  0  0  0  0  0  0  0  0  0  0  0
   -0.8430    2.7350    1.1720 C   0  0  0  0  0  0  0  0  0  0  0  0
   -0.7820    2.5360    2.5210 C   0  0  0  0  0  0  0  0  0  0  0  0
   -0.5800    3.6010    3.3990 C   0  0  0  0  0  0  0  0  0  0  0  0
   -0.5100    3.2990    5.1180 Cl  0  0  0  0  0  0  0  0  0  0  0  0
   -0.4330    4.8940    2.9570 C   0  0  0  0  0  0  0  0  0  0  0  0
   -0.4940    5.0890    1.6070 C   0  0  0  0  0  0  0  0  0  0  0  0
   -0.6910    4.0610    0.7270 C   0  0  0  0  0  0  0  0  0  0  0  0
   -0.7560    4.3930   -0.9920 Cl  0  0  0  0  0  0  0  0  0  0  0  0
    4.1200    0.5030    0.1910 C   0  0  0  0  0  0  0  0  0  0  0  0
    4.0550   -0.6160    0.9500 C   0  0  0  0  0  0  0  0  0  0  0  0
    4.3450   -0.6120    2.2990 C   0  0  0  0  0  0  0  0  0  0  0  0
    4.7160    0.5290    2.9460 C   0  0  0  0  0  0  0  0  0  0  0  0
    4.7950    1.6930    2.2080 C   0  0  0  0  0  0  0  0  0  0  0  0
    5.2000    2.9470    2.9080 C   0  0  0  0  0  0  0  0  0  0  0  0
    4.5040    1.6780    0.8630 C   0  0  0  0  0  0  0  0  0  0  0  0
  1  2  1  0
  2  3  1  0
  3  4  1  0
  4  5  1  6
  4 34  1  0
  5  6  1  0
  6  7  1  0
  7  8  2  0
  7  9  1  0
 10  9  1  1
 10 11  1  0
 10 23  1  0
 11 12  1  0
 12 13  2  0
 12 14  1  0
 14 15  2  0
 14 18  1  0
 15 16  1  0
 16 17  1  0
 17 18  2  0
 17 22  1  0
 18 19  1  0
 19 20  1  0
 20 21  1  0
 21 22  1  0
 23 24  2  0
 23 25  1  0
 25 26  1  0
 26 27  2  0
 26 32  1  0
 27 28  1  0
 28 29  1  0
 28 30  2  0
 30 31  1  0
 31 32  2  0
 32 33  1  0
 34 35  2  0
 34 40  1  0
 35 36  1  0
 36 37  2  0
 37 38  1  0
 38 39  1  0
 38 40  2  0
M  CHG  2   3   1  20   1
M  END
