
     RDKit          3D

 31 31  0  0  0  0  0  0  0  0999 V2000
    6.9840    3.0620    0.7430 C   0  0  0  0  0  0  0  0  0  0  0  0
    6.6200    1.7100    1.2450 C   0  0  0  0  0  0  0  0  0  0  0  0
    7.1760    1.3230    2.3020 O   0  0  0  0  0  0  0  0  0  0  0  0
    5.6690    0.8830    0.5450 C   0  0  0  0  0  0  0  0  0  0  0  0
    5.0720    1.2260   -0.5360 N   0  0  0  0  0  0  0  0  0  0  0  0
    4.1470    0.3740   -1.1810 C   0  0  0  0  0  0  0  0  0  0  0  0
    3.3120   -0.4220   -0.5460 C   0  0  0  0  0  0  0  0  0  0  0  0
    2.8240   -0.9070    0.7970 C   0  0  0  0  0  0  0  0  0  0  0  0
    2.9680   -0.7990    2.0350 O   0  0  0  0  0  0  0  0  0  0  0  0
    2.2430   -1.4250   -0.4440 C   0  0  2  0  0  0  0  0  0  0  0  0
    2.5880   -2.8500   -0.8750 C   0  0  0  0  0  0  0  0  0  0  0  0
    0.8120   -1.0410   -0.7200 C   0  0  1  0  0  0  0  0  0  0  0  0
   -0.1100   -2.2310   -0.5570 C   0  0  0  0  0  0  0  0  0  0  0  0
    0.4000   -0.1120    0.2480 O   0  0  0  0  0  0  0  0  0  0  0  0
   -0.8520    0.2820    0.0830 O   0  0  0  0  0  0  0  0  0  0  0  0
   -1.8350    0.1110    1.0830 C   0  0  0  0  0  0  0  0  0  0  0  0
   -1.5690   -0.6240    2.0260 N   0  0  0  0  0  0  0  0  0  0  0  0
   -2.2310   -1.2270    3.4560 S   0  0  0  0  0  0  0  0  0  0  0  0
   -1.8500   -2.9540    3.8270 C   0  0  0  0  0  0  0  0  0  0  0  0
   -2.4290   -3.7940    2.9050 F   0  0  0  0  0  0  0  0  0  0  0  0
   -3.1030    0.8330    0.9070 C   0  0  1  0  0  0  0  0  0  0  0  0
   -3.9770    0.5820    2.0800 C   0  0  0  0  0  0  0  0  0  0  0  0
   -2.7260    2.2640    0.8430 N   0  0  0  0  0  0  0  0  0  0  0  0
   -3.6010    0.4370   -0.3010 O   0  0  0  0  0  0  0  0  0  0  0  0
   -4.7540    0.8770   -0.7910 C   0  0  1  0  0  0  0  0  0  0  0  0
   -4.9770    2.3200   -1.0370 C   0  0  0  0  0  0  0  0  0  0  0  0
   -4.8670    0.2400   -2.2020 C   0  0  0  0  0  0  0  0  0  0  0  0
   -6.2070    0.2080    0.0450 Cl  0  0  0  0  0  0  0  0  0  0  0  0
    0.6050   -0.4980   -2.0890 C   0  0  0  0  0  0  0  0  0  0  0  0
    0.9460   -1.2560   -3.3140 C   0  0  0  0  0  0  0  0  0  0  0  0
    0.1350    0.6170   -2.2160 O   0  0  0  0  0  0  0  0  0  0  0  0
  1  2  1  0
  2  3  2  0
  2  4  1  0
  4  5  2  3
  5  6  1  0
  6  7  2  3
  7  8  1  0
  7 10  1  0
  8  9  2  0
  8 10  1  0
 10 11  1  6
 10 12  1  0
 12 13  1  6
 12 14  1  0
 12 29  1  0
 14 15  1  0
 15 16  1  0
 16 17  2  3
 16 21  1  0
 17 18  1  0
 18 19  1  0
 19 20  1  0
 21 22  1  1
 21 23  1  0
 21 24  1  0
 24 25  1  0
 25 26  1  6
 25 27  1  0
 25 28  1  0
 29 30  1  0
 29 31  2  0
M  CHG  2   5   1  23   1
M  END
