
     RDKit          3D

 31 32  0  0  0  0  0  0  0  0999 V2000
    7.3960    0.7730   -0.1710 C   0  0  0  0  0  0  0  0  0  0  0  0
    6.0850    0.5580   -0.9140 C   0  0  0  0  0  0  0  0  0  0  0  0
    4.9930    0.7250    0.0530 C   0  0  0  0  0  0  0  0  0  0  0  0
    4.8300    2.0130    0.7620 C   0  0  0  0  0  0  0  0  0  0  0  0
    3.9010    2.1530    1.5830 O   0  0  0  0  0  0  0  0  0  0  0  0
    4.1460   -0.2320    0.3150 C   0  0  0  0  0  0  0  0  0  0  0  0
    4.1510   -1.5430   -0.2750 C   0  0  0  0  0  0  0  0  0  0  0  0
    3.2250   -2.4340    0.0820 C   0  0  0  0  0  0  0  0  0  0  0  0
    2.2630   -2.0570    1.0340 N   0  0  0  0  0  0  0  0  0  0  0  0
    1.2700   -1.2800    0.7440 C   0  0  0  0  0  0  0  0  0  0  0  0
    1.0670   -0.7460   -0.5440 O   0  0  0  0  0  0  0  0  0  0  0  0
    0.3200    0.4550   -0.5780 C   0  0  1  0  0  0  0  0  0  0  0  0
    0.3300    1.0900   -2.2320 Cl  0  0  0  0  0  0  0  0  0  0  0  0
   -1.0400    0.3580    0.0330 C   0  0  1  0  0  0  0  0  0  0  0  0
   -1.3360    1.6500    0.7690 C   0  0  0  0  0  0  0  0  0  0  0  0
   -1.3310    2.8340    0.0040 N   0  0  1  0  0  0  0  0  0  0  0  0
   -2.6100    3.5020    0.1760 C   0  0  0  0  0  0  0  0  0  0  0  0
   -0.2910    3.7840    0.4190 C   0  0  0  0  0  0  0  0  0  0  0  0
   -2.1350   -0.0430   -0.8900 C   0  0  2  0  0  0  0  0  0  0  0  0
   -1.6920   -0.9460   -2.0170 C   0  0  0  0  0  0  0  0  0  0  0  0
   -2.8100    1.0800   -1.5260 N   0  0  0  0  0  0  0  0  0  0  0  0
   -3.1490   -0.6870   -0.1420 O   0  0  0  0  0  0  0  0  0  0  0  0
   -2.7760   -1.9340    0.2890 C   0  0  2  0  0  0  0  0  0  0  0  0
   -3.8160   -2.4180    1.2750 C   0  0  2  0  0  0  0  0  0  0  0  0
   -3.4980   -3.8280    1.7250 C   0  0  0  0  0  0  0  0  0  0  0  0
   -5.1440   -2.4880    0.5310 C   0  0  0  0  0  0  0  0  0  0  0  0
   -3.9700   -1.6300    2.3790 O   0  0  0  0  0  0  0  0  0  0  0  0
   -1.4990   -1.9150    0.7760 O   0  0  0  0  0  0  0  0  0  0  0  0
   -1.0080   -0.7020    1.1490 C   0  0  2  0  0  0  0  0  0  0  0  0
   -1.7650   -0.2760    2.2500 F   0  0  0  0  0  0  0  0  0  0  0  0
    0.3030   -0.8890    1.6590 O   0  0  0  0  0  0  0  0  0  0  0  0
  1  2  1  0
  2  3  1  0
  3  4  1  0
  3  6  2  3
  4  5  2  0
  6  7  1  0
  7  8  2  3
  8  9  1  0
  9 10  2  3
 10 11  1  0
 10 31  1  0
 11 12  1  0
 12 13  1  6
 12 14  1  0
 14 15  1  1
 14 19  1  0
 14 29  1  0
 15 16  1  0
 16 17  1  1
 16 18  1  0
 19 20  1  6
 19 21  1  0
 19 22  1  0
 23 22  1  1
 23 24  1  0
 23 28  1  0
 24 25  1  1
 24 26  1  0
 24 27  1  0
 28 29  1  0
 29 30  1  1
 29 31  1  0
M  CHG  1  16   1
M  END
