
     RDKit          3D

 28 30  0  0  0  0  0  0  0  0999 V2000
   -2.1650    3.0750   -0.8030 C   0  0  0  0  0  0  0  0  0  0  0  0
   -2.6470    2.3030    0.2770 O   0  0  0  0  0  0  0  0  0  0  0  0
   -3.3700    1.1520    0.2200 C   0  0  0  0  0  0  0  0  0  0  0  0
   -2.8200   -0.0980    0.2730 C   0  0  0  0  0  0  0  0  0  0  0  0
   -1.3800   -0.4010    0.3130 C   0  0  0  0  0  0  0  0  0  0  0  0
   -0.4460    0.5640    0.5060 N   0  0  0  0  0  0  0  0  0  0  0  0
    0.8430    0.3090    0.3970 C   0  0  0  0  0  0  0  0  0  0  0  0
    1.6840    1.2380    0.5770 O   0  0  0  0  0  0  0  0  0  0  0  0
    1.3890   -0.9450    0.0910 C   0  0  0  0  0  0  0  0  0  0  0  0
    2.8030   -1.0320   -0.2680 C   0  0  0  0  0  0  0  0  0  0  0  0
    3.9260   -1.8580    0.8800 S   0  0  0  0  0  0  0  0  0  0  0  0
    5.4560   -0.8930    0.6290 C   0  0  0  0  0  0  0  0  0  0  0  0
    5.8110    0.1000    1.4370 C   0  0  0  0  0  0  0  0  0  0  0  0
    6.9430    0.8630    1.0580 C   0  0  0  0  0  0  0  0  0  0  0  0
    7.6320    0.5750   -0.0920 C   0  0  0  0  0  0  0  0  0  0  0  0
    7.2440   -0.4540   -0.9080 C   0  0  0  0  0  0  0  0  0  0  0  0
    6.1520   -1.1910   -0.5450 C   0  0  0  0  0  0  0  0  0  0  0  0
    5.7160   -2.2460   -1.3320 O   0  0  0  0  0  0  0  0  0  0  0  0
    0.4750   -1.9240   -0.0900 C   0  0  0  0  0  0  0  0  0  0  0  0
   -0.8990   -1.6510    0.0180 C   0  0  0  0  0  0  0  0  0  0  0  0
   -1.9010   -3.0670   -0.3970 Cl  0  0  0  0  0  0  0  0  0  0  0  0
   -3.6930   -1.1780    0.2020 C   0  0  0  0  0  0  0  0  0  0  0  0
   -5.0580   -1.0620    0.0670 C   0  0  0  0  0  0  0  0  0  0  0  0
   -5.8610   -2.2940   -0.0920 C   0  0  0  0  0  0  0  0  0  0  0  0
   -5.5660    0.2090    0.0200 C   0  0  0  0  0  0  0  0  0  0  0  0
   -7.3020    0.3890   -0.1880 Cl  0  0  0  0  0  0  0  0  0  0  0  0
   -4.7710    1.3210    0.0940 C   0  0  0  0  0  0  0  0  0  0  0  0
   -5.3570    2.6810    0.0850 C   0  0  0  0  0  0  0  0  0  0  0  0
  1  2  1  0
  2  3  1  0
  3  4  2  0
  3 27  1  0
  4  5  1  0
  4 22  1  0
  5  6  1  0
  5 20  2  0
  6  7  1  0
  7  8  2  0
  7  9  1  0
  9 10  1  0
  9 19  2  0
 10 11  1  0
 11 12  1  0
 12 13  2  0
 12 17  1  0
 13 14  1  0
 14 15  2  0
 15 16  1  0
 16 17  2  0
 17 18  1  0
 19 20  1  0
 20 21  1  0
 22 23  2  0
 23 24  1  0
 23 25  1  0
 25 26  1  0
 25 27  2  0
 27 28  1  0
M  END
