
     RDKit          3D

 29 32  0  0  0  0  0  0  0  0999 V2000
   -2.0380   -4.6410   -0.5240 C   0  0  0  0  0  0  0  0  0  0  0  0
   -1.0390   -3.6700   -0.2780 O   0  0  0  0  0  0  0  0  0  0  0  0
   -1.4250   -2.3500   -0.1520 C   0  0  0  0  0  0  0  0  0  0  0  0
   -2.6930   -1.9670   -0.2550 N   0  0  0  0  0  0  0  0  0  0  0  0
   -3.1170   -0.6860   -0.1390 C   0  0  0  0  0  0  0  0  0  0  0  0
   -4.5210   -0.3520   -0.2650 C   0  0  0  0  0  0  0  0  0  0  0  0
   -5.4240   -1.4140   -0.5160 C   0  0  0  0  0  0  0  0  0  0  0  0
   -6.7630   -1.2390   -0.6550 C   0  0  0  0  0  0  0  0  0  0  0  0
   -7.2870    0.0320   -0.5490 C   0  0  0  0  0  0  0  0  0  0  0  0
   -6.4190    1.0760   -0.3040 C   0  0  0  0  0  0  0  0  0  0  0  0
   -5.0470    0.8900   -0.1630 C   0  0  0  0  0  0  0  0  0  0  0  0
   -4.2930    1.9990    0.0750 O   0  0  0  0  0  0  0  0  0  0  0  0
   -4.8560    3.1750    0.6240 C   0  0  0  0  0  0  0  0  0  0  0  0
   -6.1640    3.5250   -0.0880 C   0  0  0  0  0  0  0  0  0  0  0  0
   -6.9190    2.3420   -0.1960 O   0  0  0  0  0  0  0  0  0  0  0  0
   -2.1530    0.2360    0.0980 C   0  0  0  0  0  0  0  0  0  0  0  0
   -0.7930   -0.1110    0.2170 C   0  0  0  0  0  0  0  0  0  0  0  0
   -0.4150   -1.4080    0.0920 C   0  0  0  0  0  0  0  0  0  0  0  0
    0.9220   -1.8540    0.2330 N   0  0  0  0  0  0  0  0  0  0  0  0
    2.0330   -0.9940    0.2780 C   0  0  0  0  0  0  0  0  0  0  0  0
    2.2010    0.1370   -0.4620 C   0  0  0  0  0  0  0  0  0  0  0  0
    3.3160    0.9200   -0.3060 C   0  0  0  0  0  0  0  0  0  0  0  0
    4.3040    0.6030    0.5920 C   0  0  0  0  0  0  0  0  0  0  0  0
    5.5140    1.4230    0.7830 C   0  0  0  0  0  0  0  0  0  0  0  0
    6.5480    0.9600   -0.1220 N   0  0  2  0  0  0  0  0  0  0  0  0
    7.0900   -0.3260    0.3070 C   0  0  0  0  0  0  0  0  0  0  0  0
    7.6370    1.8870   -0.2330 C   0  0  0  0  0  0  0  0  0  0  0  0
    4.1280   -0.5390    1.3320 C   0  0  0  0  0  0  0  0  0  0  0  0
    3.0360   -1.3230    1.1940 C   0  0  0  0  0  0  0  0  0  0  0  0
  1  2  1  0
  2  3  1  0
  3  4  2  0
  3 18  1  0
  4  5  1  0
  5  6  1  0
  5 16  2  0
  6  7  2  0
  6 11  1  0
  7  8  1  0
  8  9  2  0
  9 10  1  0
 10 11  2  0
 10 15  1  0
 11 12  1  0
 12 13  1  0
 13 14  1  0
 14 15  1  0
 16 17  1  0
 17 18  2  0
 18 19  1  0
 19 20  1  0
 20 21  2  0
 20 29  1  0
 21 22  1  0
 22 23  2  0
 23 24  1  0
 23 28  1  0
 24 25  1  0
 25 26  1  1
 25 27  1  0
 28 29  2  0
M  CHG  1  25   1
M  END
