
     RDKit          3D

 29 31  0  0  0  0  0  0  0  0999 V2000
   -7.7450    0.5510    0.3050 C   0  0  0  0  0  0  0  0  0  0  0  0
   -6.3130    0.8270    0.0510 C   0  0  0  0  0  0  0  0  0  0  0  0
   -5.3840   -0.1880   -0.0340 C   0  0  0  0  0  0  0  0  0  0  0  0
   -4.0860    0.1210   -0.2680 C   0  0  0  0  0  0  0  0  0  0  0  0
   -3.1120   -0.9450   -0.3520 C   0  0  0  0  0  0  0  0  0  0  0  0
   -3.1980   -2.2720   -0.2270 C   0  0  0  0  0  0  0  0  0  0  0  0
   -2.1000   -3.0390   -0.3530 C   0  0  0  0  0  0  0  0  0  0  0  0
   -0.9110   -2.3940   -0.6100 C   0  0  0  0  0  0  0  0  0  0  0  0
    0.4490   -2.9130   -0.7970 C   0  0  0  0  0  0  0  0  0  0  0  0
    0.5700   -4.1580   -0.6970 O   0  0  0  0  0  0  0  0  0  0  0  0
    1.5920   -2.0370   -1.0810 C   0  0  0  0  0  0  0  0  0  0  0  0
    2.4150   -1.6880    0.1390 C   0  0  0  0  0  0  0  0  0  0  0  0
    3.5550   -0.7970   -0.2840 C   0  0  0  0  0  0  0  0  0  0  0  0
    3.6730   -0.5220   -1.4920 O   0  0  0  0  0  0  0  0  0  0  0  0
    4.4290   -0.3240    0.7120 N   0  0  0  0  0  0  0  0  0  0  0  0
    5.5430    0.5140    0.4720 C   0  0  0  0  0  0  0  0  0  0  0  0
    5.9300    0.9400   -0.7660 C   0  0  0  0  0  0  0  0  0  0  0  0
    7.0470    1.7630   -0.9370 C   0  0  0  0  0  0  0  0  0  0  0  0
    7.5200    2.2950   -2.5480 Cl  0  0  0  0  0  0  0  0  0  0  0  0
    7.7490    2.1340    0.1830 C   0  0  0  0  0  0  0  0  0  0  0  0
    9.1550    3.1760   -0.0620 Cl  0  0  0  0  0  0  0  0  0  0  0  0
    7.3920    1.7270    1.4470 C   0  0  0  0  0  0  0  0  0  0  0  0
    6.2920    0.9190    1.5960 C   0  0  0  0  0  0  0  0  0  0  0  0
    5.8570    0.4160    3.2170 Cl  0  0  0  0  0  0  0  0  0  0  0  0
   -1.4020   -0.6980   -0.6660 S   0  0  0  0  0  0  0  0  0  0  0  0
   -3.6630    1.4220   -0.4260 C   0  0  0  0  0  0  0  0  0  0  0  0
   -4.5850    2.4500   -0.3430 C   0  0  0  0  0  0  0  0  0  0  0  0
   -5.9040    2.1570   -0.1050 C   0  0  0  0  0  0  0  0  0  0  0  0
   -6.8190    3.1940   -0.0240 O   0  0  0  0  0  0  0  0  0  0  0  0
  1  2  1  0
  2  3  2  0
  2 28  1  0
  3  4  1  0
  4  5  1  0
  4 26  2  0
  5  6  2  0
  5 25  1  0
  6  7  1  0
  7  8  2  0
  8  9  1  0
  8 25  1  0
  9 10  2  0
  9 11  1  0
 11 12  1  0
 12 13  1  0
 13 14  2  0
 13 15  1  0
 15 16  1  0
 16 17  2  0
 16 23  1  0
 17 18  1  0
 18 19  1  0
 18 20  2  0
 20 21  1  0
 20 22  1  0
 22 23  2  0
 23 24  1  0
 26 27  1  0
 27 28  2  0
 28 29  1  0
M  END
