
     RDKit          3D

 29 31  0  0  0  0  0  0  0  0999 V2000
    1.6610    4.0790    1.1330 C   0  0  0  0  0  0  0  0  0  0  0  0
    1.6870    2.9520    0.1670 C   0  0  0  0  0  0  0  0  0  0  0  0
    0.9200    3.4330   -1.2800 Cl  0  0  0  0  0  0  0  0  0  0  0  0
    2.2350    1.7760    0.6550 C   0  0  0  0  0  0  0  0  0  0  0  0
    1.6240    0.4010    0.3620 N   0  0  0  0  0  0  0  0  0  0  0  0
    2.2450   -0.5660    1.1720 C   0  0  0  0  0  0  0  0  0  0  0  0
    2.7690   -1.8050    0.4300 C   0  0  0  0  0  0  0  0  0  0  0  0
    1.9360   -2.8610    0.0840 C   0  0  0  0  0  0  0  0  0  0  0  0
    3.0210   -4.0800   -0.5380 S   0  0  0  0  0  0  0  0  0  0  0  0
    4.5560   -3.1950   -0.3340 C   0  0  0  0  0  0  0  0  0  0  0  0
    4.1210   -1.9460    0.2300 C   0  0  0  0  0  0  0  0  0  0  0  0
    5.1370   -0.9750    0.5250 O   0  0  0  0  0  0  0  0  0  0  0  0
    0.7480    0.4520   -0.7080 C   0  0  0  0  0  0  0  0  0  0  0  0
    1.4630    0.4640   -1.9740 C   0  0  0  0  0  0  0  0  0  0  0  0
    0.8910    0.6980   -3.1620 C   0  0  0  0  0  0  0  0  0  0  0  0
   -0.4990    0.9530   -3.1720 C   0  0  0  0  0  0  0  0  0  0  0  0
   -1.0580    1.2160   -4.4090 O   0  0  0  0  0  0  0  0  0  0  0  0
   -1.2070    0.9480   -2.0120 C   0  0  0  0  0  0  0  0  0  0  0  0
   -2.9130    1.2850   -1.9770 Cl  0  0  0  0  0  0  0  0  0  0  0  0
   -0.5390    0.6760   -0.7450 C   0  0  0  0  0  0  0  0  0  0  0  0
   -1.5100    0.3360    0.3140 C   0  0  0  0  0  0  0  0  0  0  0  0
   -2.4270   -0.6740   -0.0830 C   0  0  0  0  0  0  0  0  0  0  0  0
   -3.6050   -0.9660    0.6350 C   0  0  0  0  0  0  0  0  0  0  0  0
   -4.4130   -1.9350    0.1560 O   0  0  0  0  0  0  0  0  0  0  0  0
   -5.5910   -2.5570    0.3860 C   0  0  0  0  0  0  0  0  0  0  0  0
   -3.8640   -0.2540    1.7710 C   0  0  0  0  0  0  0  0  0  0  0  0
   -2.9840    0.7170    2.1690 C   0  0  0  0  0  0  0  0  0  0  0  0
   -1.8030    1.0040    1.4190 C   0  0  0  0  0  0  0  0  0  0  0  0
   -0.8530    2.2820    2.1220 Cl  0  0  0  0  0  0  0  0  0  0  0  0
  1  2  2  0
  2  3  1  0
  2  4  1  0
  4  5  1  0
  5  6  1  0
  5 13  1  0
  6  7  1  0
  7  8  2  0
  7 11  1  0
  8  9  1  0
  9 10  1  0
 10 11  2  0
 11 12  1  0
 13 14  2  0
 13 20  1  0
 14 15  1  0
 15 16  2  0
 16 17  1  0
 16 18  1  0
 18 19  1  0
 18 20  2  0
 20 21  1  0
 21 22  2  0
 21 28  1  0
 22 23  1  0
 23 24  1  0
 23 26  2  0
 24 25  1  0
 26 27  1  0
 27 28  2  0
 28 29  1  0
M  END
