
     RDKit          3D

 29 31  0  0  0  0  0  0  0  0999 V2000
   -6.8790    2.1270    0.7010 C   0  0  0  0  0  0  0  0  0  0  0  0
   -7.6740    1.0210    1.1620 N   0  0  0  0  0  0  0  0  0  0  0  0
   -7.6650   -0.1860    0.4220 C   0  0  0  0  0  0  0  0  0  0  0  0
   -8.6260   -0.4410   -0.4530 C   0  0  0  0  0  0  0  0  0  0  0  0
   -9.9390    0.6760   -0.7420 Cl  0  0  0  0  0  0  0  0  0  0  0  0
   -6.5490   -1.1310    0.6700 C   0  0  0  0  0  0  0  0  0  0  0  0
   -5.3020   -0.5270    0.3790 O   0  0  0  0  0  0  0  0  0  0  0  0
   -4.0980   -1.1610    0.5160 C   0  0  0  0  0  0  0  0  0  0  0  0
   -4.0550   -2.3280    0.9130 O   0  0  0  0  0  0  0  0  0  0  0  0
   -2.8240   -0.4900    0.2000 C   0  0  0  0  0  0  0  0  0  0  0  0
   -1.5430   -0.9700    0.2780 C   0  0  0  0  0  0  0  0  0  0  0  0
   -0.5380   -0.1660   -0.0650 C   0  0  0  0  0  0  0  0  0  0  0  0
    0.8970   -0.5960   -0.0120 C   0  0  0  0  0  0  0  0  0  0  0  0
    1.3840   -1.7960    0.3660 C   0  0  0  0  0  0  0  0  0  0  0  0
    2.7890   -1.7140    0.2460 C   0  0  0  0  0  0  0  0  0  0  0  0
    3.0640   -0.4640   -0.1980 C   0  0  0  0  0  0  0  0  0  0  0  0
    4.3150    0.1950   -0.5070 C   0  0  0  0  0  0  0  0  0  0  0  0
    4.2900    1.4660   -1.1240 C   0  0  0  0  0  0  0  0  0  0  0  0
    5.4030    2.1680   -1.4360 C   0  0  0  0  0  0  0  0  0  0  0  0
    6.6300    1.6590   -1.1580 C   0  0  0  0  0  0  0  0  0  0  0  0
    8.0620    2.6110   -1.5830 Cl  0  0  0  0  0  0  0  0  0  0  0  0
    6.7230    0.4430   -0.5640 C   0  0  0  0  0  0  0  0  0  0  0  0
    8.0560   -0.1260   -0.2540 C   0  0  0  0  0  0  0  0  0  0  0  0
    5.5610   -0.2790   -0.2430 C   0  0  0  0  0  0  0  0  0  0  0  0
    5.7560   -1.5930    0.4380 C   0  0  0  0  0  0  0  0  0  0  0  0
    1.8850    0.1540   -0.3320 O   0  0  0  0  0  0  0  0  0  0  0  0
   -0.8510    1.1330   -0.4890 C   0  0  0  0  0  0  0  0  0  0  0  0
    0.1980    2.4060   -0.9960 Cl  0  0  0  0  0  0  0  0  0  0  0  0
   -2.5990    1.1370   -0.3730 S   0  0  0  0  0  0  0  0  0  0  0  0
  1  2  1  0
  2  3  1  0
  3  4  2  3
  3  6  1  0
  4  5  1  0
  6  7  1  0
  7  8  1  0
  8  9  2  0
  8 10  1  0
 10 11  2  0
 10 29  1  0
 11 12  1  0
 12 13  1  0
 12 27  2  0
 13 14  2  0
 13 26  1  0
 14 15  1  0
 15 16  2  0
 16 17  1  0
 16 26  1  0
 17 18  2  0
 17 24  1  0
 18 19  1  0
 19 20  2  0
 20 21  1  0
 20 22  1  0
 22 23  1  0
 22 24  2  0
 24 25  1  0
 27 28  1  0
 27 29  1  0
M  END
