
     RDKit          3D

 17 18  0  0  0  0  0  0  0  0999 V2000
    4.5950   -1.3130   -0.2510 C   0  0  0  0  0  0  0  0  0  0  0  0
    3.4550   -0.3670   -0.0010 C   0  0  0  0  0  0  0  0  0  0  0  0
    3.4280    0.9610   -0.3930 C   0  0  0  0  0  0  0  0  0  0  0  0
    2.2130    1.4400    0.0350 C   0  0  0  0  0  0  0  0  0  0  0  0
    1.5410    0.3960    0.6700 C   0  0  0  0  0  0  0  0  0  0  0  0
    0.1760    0.5670    1.2640 C   0  0  1  0  0  0  0  0  0  0  0  0
    0.0550    1.7430    1.9650 O   0  0  0  0  0  0  0  0  0  0  0  0
   -0.9070    0.3390    0.2690 C   0  0  0  0  0  0  0  0  0  0  0  0
   -0.7170    0.7170   -1.0690 C   0  0  0  0  0  0  0  0  0  0  0  0
   -1.6900    0.5060   -2.0120 C   0  0  0  0  0  0  0  0  0  0  0  0
   -1.4620    0.9760   -3.6930 Cl  0  0  0  0  0  0  0  0  0  0  0  0
   -2.8890   -0.0900   -1.6620 C   0  0  0  0  0  0  0  0  0  0  0  0
   -3.1070   -0.4690   -0.3720 C   0  0  0  0  0  0  0  0  0  0  0  0
   -4.3860   -1.0990    0.0020 C   0  0  0  0  0  0  0  0  0  0  0  0
   -2.1030   -0.2450    0.5790 C   0  0  0  0  0  0  0  0  0  0  0  0
   -2.3890   -0.6500    1.8660 O   0  0  0  0  0  0  0  0  0  0  0  0
    2.3260   -0.6260    0.6110 O   0  0  0  0  0  0  0  0  0  0  0  0
  1  2  1  0
  2  3  2  0
  2 17  1  0
  3  4  1  0
  4  5  2  0
  5  6  1  0
  5 17  1  0
  6  7  1  6
  6  8  1  0
  8  9  2  0
  8 15  1  0
  9 10  1  0
 10 11  1  0
 10 12  2  0
 12 13  1  0
 13 14  1  0
 13 15  2  0
 15 16  1  0
M  END
