
     RDKit          3D

 17 18  0  0  0  0  0  0  0  0999 V2000
   -1.8100    2.7630    0.3130 C   0  0  0  0  0  0  0  0  0  0  0  0
   -1.0600    1.6150    0.1520 O   0  0  0  0  0  0  0  0  0  0  0  0
   -1.5980    0.3490   -0.0610 C   0  0  0  0  0  0  0  0  0  0  0  0
   -2.9730    0.2570   -0.1110 C   0  0  0  0  0  0  0  0  0  0  0  0
   -3.4980   -1.0040   -0.3240 C   0  0  0  0  0  0  0  0  0  0  0  0
   -2.6930   -2.1130   -0.4780 C   0  0  0  0  0  0  0  0  0  0  0  0
   -1.3150   -2.0100   -0.4260 C   0  0  0  0  0  0  0  0  0  0  0  0
   -0.7870   -0.7560   -0.2140 C   0  0  0  0  0  0  0  0  0  0  0  0
    0.6450   -0.5610   -0.1420 C   0  0  0  0  0  0  0  0  0  0  0  0
    1.1390    0.2130    0.9070 C   0  0  0  0  0  0  0  0  0  0  0  0
    2.4890    0.4450    1.0480 C   0  0  0  0  0  0  0  0  0  0  0  0
    3.0010    1.2120    2.0840 O   0  0  0  0  0  0  0  0  0  0  0  0
    3.3230   -0.1260    0.1020 C   0  0  0  0  0  0  0  0  0  0  0  0
    4.6980    0.1130    0.2490 O   0  0  0  0  0  0  0  0  0  0  0  0
    2.8350   -0.8930   -0.9370 C   0  0  0  0  0  0  0  0  0  0  0  0
    1.4900   -1.1190   -1.0710 C   0  0  0  0  0  0  0  0  0  0  0  0
    0.8400   -2.0950   -2.3980 Cl  0  0  0  0  0  0  0  0  0  0  0  0
  1  2  1  0
  2  3  1  0
  3  4  2  0
  3  8  1  0
  4  5  1  0
  5  6  2  0
  6  7  1  0
  7  8  2  0
  8  9  1  0
  9 10  2  0
  9 16  1  0
 10 11  1  0
 11 12  1  0
 11 13  2  0
 13 14  1  0
 13 15  1  0
 15 16  2  0
 16 17  1  0
M  END
