
     RDKit          3D

 17 18  0  0  0  0  0  0  0  0999 V2000
    4.7940   -0.6700   -0.2500 C   0  0  0  0  0  0  0  0  0  0  0  0
    3.8040    0.2940   -0.1400 O   0  0  0  0  0  0  0  0  0  0  0  0
    2.4510    0.1110   -0.0290 C   0  0  0  0  0  0  0  0  0  0  0  0
    1.8690   -1.1430   -0.0100 C   0  0  0  0  0  0  0  0  0  0  0  0
    0.4980   -1.2260    0.1060 C   0  0  0  0  0  0  0  0  0  0  0  0
   -0.3020   -0.1090    0.2030 C   0  0  0  0  0  0  0  0  0  0  0  0
   -1.7320   -0.2310    0.3170 C   0  0  0  0  0  0  0  0  0  0  0  0
   -2.4820   -0.7860   -0.7350 C   0  0  0  0  0  0  0  0  0  0  0  0
   -3.8500   -0.9270   -0.6490 C   0  0  0  0  0  0  0  0  0  0  0  0
   -4.4580   -0.4950    0.5240 C   0  0  0  0  0  0  0  0  0  0  0  0
   -3.7220    0.0500    1.5530 C   0  0  0  0  0  0  0  0  0  0  0  0
   -2.3550    0.1910    1.4680 C   0  0  0  0  0  0  0  0  0  0  0  0
   -1.4430    0.9000    2.8100 Cl  0  0  0  0  0  0  0  0  0  0  0  0
    0.2690    1.1560    0.1860 C   0  0  0  0  0  0  0  0  0  0  0  0
   -0.5570    2.2950    0.2870 O   0  0  0  0  0  0  0  0  0  0  0  0
    1.6370    1.2520    0.0700 C   0  0  0  0  0  0  0  0  0  0  0  0
    2.2500    2.4810    0.0490 O   0  0  0  0  0  0  0  0  0  0  0  0
  1  2  1  0
  2  3  1  0
  3  4  2  0
  3 16  1  0
  4  5  1  0
  5  6  2  0
  6  7  1  0
  6 14  1  0
  7  8  2  0
  7 12  1  0
  8  9  1  0
  9 10  2  0
 10 11  1  0
 11 12  2  0
 12 13  1  0
 14 15  1  0
 14 16  2  0
 16 17  1  0
M  END
