
     RDKit          3D

 10 11  0  0  0  0  0  0  0  0999 V2000
   -2.8450    0.6660    0.1960 N   0  0  0  0  0  0  0  0  0  0  0  0
   -1.5120    0.2000    0.0770 C   0  0  0  0  0  0  0  0  0  0  0  0
   -1.2100   -1.1350   -0.1610 C   0  0  0  0  0  0  0  0  0  0  0  0
    0.0540   -1.5680   -0.2720 N   0  0  0  0  0  0  0  0  0  0  0  0
    1.0920   -0.7210   -0.1560 C   0  0  0  0  0  0  0  0  0  0  0  0
    2.4380   -0.8980   -0.2240 N   0  0  0  0  0  0  0  0  0  0  0  0
    3.0170    0.2860   -0.0370 N   0  0  0  0  0  0  0  0  0  0  0  0
    2.0660    1.2130    0.1500 C   0  0  0  0  0  0  0  0  0  0  0  0
    0.8270    0.6150    0.0820 C   0  0  0  0  0  0  0  0  0  0  0  0
   -0.4470    1.0310    0.1900 N   0  0  0  0  0  0  0  0  0  0  0  0
  1  2  1  0
  2  3  2  0
  2 10  1  0
  3  4  1  0
  4  5  2  0
  5  6  1  0
  5  9  1  0
  6  7  1  0
  7  8  2  0
  8  9  1  0
  9 10  2  0
M  END
