
     RDKit          3D

 10 11  0  0  0  0  0  0  0  0999 V2000
    3.0610    0.2510    0.1640 N   0  0  0  0  0  0  0  0  0  0  0  0
    1.6680    0.0060    0.1120 C   0  0  0  0  0  0  0  0  0  0  0  0
    1.1880   -1.2530    0.2900 N   0  0  0  0  0  0  0  0  0  0  0  0
   -0.1280   -1.4990    0.2430 C   0  0  0  0  0  0  0  0  0  0  0  0
   -1.0520   -0.5030    0.0150 C   0  0  0  0  0  0  0  0  0  0  0  0
   -2.4280   -0.4930   -0.0780 C   0  0  0  0  0  0  0  0  0  0  0  0
   -2.7530    0.8020   -0.3160 N   0  0  0  0  0  0  0  0  0  0  0  0
   -1.6540    1.5310   -0.3640 N   0  0  0  0  0  0  0  0  0  0  0  0
   -0.5520    0.7880   -0.1670 C   0  0  0  0  0  0  0  0  0  0  0  0
    0.7580    0.9650   -0.1090 N   0  0  0  0  0  0  0  0  0  0  0  0
  1  2  1  0
  2  3  2  0
  2 10  1  0
  3  4  1  0
  4  5  2  0
  5  6  1  0
  5  9  1  0
  6  7  2  0
  7  8  1  0
  8  9  1  0
  9 10  2  0
M  END
