
     RDKit          3D

 25 28  0  0  0  0  0  0  0  0999 V2000
    3.9610    2.1180   -1.0120 C   0  0  0  0  0  0  0  0  0  0  0  0
    4.3460    0.7580   -1.4410 C   0  0  0  0  0  0  0  0  0  0  0  0
    3.4040   -0.1110   -1.8460 C   0  0  0  0  0  0  0  0  0  0  0  0
    2.0150    0.2490   -1.8730 C   0  0  0  0  0  0  0  0  0  0  0  0
    1.0180   -0.4640   -1.0640 C   0  0  0  0  0  0  0  0  0  0  0  0
    1.0950   -1.3730   -0.0790 C   0  0  0  0  0  0  0  0  0  0  0  0
    2.2610   -1.9600    0.5300 C   0  0  0  0  0  0  0  0  0  0  0  0
    2.0520   -2.9930    1.6120 C   0  0  0  0  0  0  0  0  0  0  0  0
    3.4370   -1.7240    0.2740 O   0  0  0  0  0  0  0  0  0  0  0  0
   -0.2540   -1.7190    0.2900 N   0  0  0  0  0  0  0  0  0  0  0  0
   -1.2350   -2.6590    0.6750 C   0  0  0  0  0  0  0  0  0  0  0  0
   -2.4920   -2.1680   -0.1120 C   0  0  2  0  0  0  0  0  0  0  0  0
   -2.4320   -2.4930   -1.4860 N   0  0  0  0  0  0  0  0  0  0  0  0
   -2.3750   -0.6960    0.1850 C   0  0  0  0  0  0  0  0  0  0  0  0
   -3.1750    0.3330    0.2900 C   0  0  0  0  0  0  0  0  0  0  0  0
   -2.6800    1.6680    0.6370 C   0  0  0  0  0  0  0  0  0  0  0  0
   -3.4770    2.7620    0.7150 C   0  0  0  0  0  0  0  0  0  0  0  0
   -2.9100    3.9810    1.0380 C   0  0  0  0  0  0  0  0  0  0  0  0
   -1.5710    4.1380    1.2860 C   0  0  0  0  0  0  0  0  0  0  0  0
   -0.7750    3.0140    1.2030 C   0  0  0  0  0  0  0  0  0  0  0  0
    0.5370    3.1180    1.4360 F   0  0  0  0  0  0  0  0  0  0  0  0
   -1.3250    1.7680    0.8780 C   0  0  0  0  0  0  0  0  0  0  0  0
   -0.5200    0.6390    0.7980 O   0  0  0  0  0  0  0  0  0  0  0  0
   -0.9450   -0.4570    0.1180 C   0  0  1  0  0  0  0  0  0  0  0  0
   -0.4250   -0.2580   -1.2650 N   0  0  0  0  0  0  0  0  0  0  0  0
  1  2  1  0
  2  3  2  3
  3  4  1  0
  4  5  1  0
  5  6  2  0
  5 25  1  0
  6  7  1  0
  6 10  1  0
  7  8  1  0
  7  9  2  0
 10 11  1  0
 10 24  1  0
 11 12  1  0
 12 13  1  6
 12 14  1  0
 14 15  2  0
 14 24  1  0
 15 16  1  0
 16 17  2  0
 16 22  1  0
 17 18  1  0
 18 19  2  0
 19 20  1  0
 20 21  1  0
 20 22  2  0
 22 23  1  0
 23 24  1  0
 24 25  1  6
M  CHG  1  13   1
M  END
