
     RDKit          3D

 10 11  0  0  0  0  0  0  0  0999 V2000
    2.5880   -0.4170   -0.3280 N   0  0  0  0  0  0  0  0  0  0  0  0
    1.3500    0.2890   -0.4140 C   0  0  0  0  0  0  0  0  0  0  0  0
    1.1450    1.5140   -0.9650 N   0  0  0  0  0  0  0  0  0  0  0  0
   -0.1350    1.8260   -0.8520 N   0  0  0  0  0  0  0  0  0  0  0  0
   -0.8090    0.8270   -0.2290 C   0  0  0  0  0  0  0  0  0  0  0  0
   -2.0860    0.6240    0.1320 N   0  0  0  0  0  0  0  0  0  0  0  0
   -2.5250   -0.4810    0.7590 C   0  0  0  0  0  0  0  0  0  0  0  0
   -1.6190   -1.4360    1.0340 N   0  0  0  0  0  0  0  0  0  0  0  0
   -0.3220   -1.2820    0.6920 C   0  0  0  0  0  0  0  0  0  0  0  0
    0.1230   -0.1440    0.0490 C   0  0  0  0  0  0  0  0  0  0  0  0
  1  2  1  0
  2  3  2  0
  2 10  1  0
  3  4  1  0
  4  5  1  0
  5  6  2  0
  5 10  1  0
  6  7  1  0
  7  8  2  0
  8  9  1  0
  9 10  2  0
M  END
