
     RDKit          3D

 23 25  0  0  0  0  0  0  0  0999 V2000
    6.3130    0.8870   -0.4380 C   0  0  0  0  0  0  0  0  0  0  0  0
    5.6450   -0.3760   -0.9390 C   0  0  0  0  0  0  0  0  0  0  0  0
    4.2290   -0.3400   -0.4660 C   0  0  0  0  0  0  0  0  0  0  0  0
    3.2810    0.2440   -1.2640 C   0  0  0  0  0  0  0  0  0  0  0  0
    1.9590    0.3150   -0.8970 C   0  0  0  0  0  0  0  0  0  0  0  0
    1.5990   -0.2340    0.3320 C   0  0  0  0  0  0  0  0  0  0  0  0
    0.3730   -0.3240    0.9820 C   0  0  0  0  0  0  0  0  0  0  0  0
   -0.8910    0.1810    0.4640 C   0  0  0  0  0  0  0  0  0  0  0  0
   -0.9770    0.7570   -0.6490 O   0  0  0  0  0  0  0  0  0  0  0  0
   -2.0590    0.0070    1.2560 N   0  0  0  0  0  0  0  0  0  0  0  0
   -3.3010    0.4910    0.7630 C   0  0  0  0  0  0  0  0  0  0  0  0
   -3.9470    1.4370    1.4260 C   0  0  0  0  0  0  0  0  0  0  0  0
   -5.2220    1.9750    0.9700 C   0  0  0  0  0  0  0  0  0  0  0  0
   -5.7880    1.5420   -0.1330 C   0  0  0  0  0  0  0  0  0  0  0  0
   -5.2080    0.5090   -0.9860 C   0  0  2  0  0  0  0  0  0  0  0  0
   -6.3250   -0.8850   -1.1570 Cl  0  0  0  0  0  0  0  0  0  0  0  0
   -3.9430   -0.0300   -0.4370 C   0  0  0  0  0  0  0  0  0  0  0  0
   -3.4110   -1.0470   -1.0920 C   0  0  0  0  0  0  0  0  0  0  0  0
   -4.1080   -1.7360   -2.5380 Cl  0  0  0  0  0  0  0  0  0  0  0  0
    0.6170   -0.9520    2.1360 N   0  0  0  0  0  0  0  0  0  0  0  0
    1.9240   -1.2430    2.2130 C   0  0  0  0  0  0  0  0  0  0  0  0
    2.5490   -0.7980    1.0880 N   0  0  0  0  0  0  0  0  0  0  0  0
    3.8240   -0.8470    0.6960 N   0  0  0  0  0  0  0  0  0  0  0  0
  1  2  1  0
  2  3  1  0
  3  4  1  0
  3 23  2  0
  4  5  2  0
  5  6  1  0
  6  7  2  0
  6 22  1  0
  7  8  1  0
  7 20  1  0
  8  9  2  0
  8 10  1  0
 10 11  1  0
 11 12  2  0
 11 17  1  0
 12 13  1  0
 13 14  2  0
 14 15  1  0
 15 16  1  1
 15 17  1  0
 17 18  2  3
 18 19  1  0
 20 21  2  0
 21 22  1  0
 22 23  1  0
M  END
