
     RDKit          3D

 26 27  0  0  0  0  0  0  0  0999 V2000
    1.2060   -3.8020    1.7710 N   0  0  0  0  0  0  0  0  0  0  0  0
    1.4340   -3.6870    0.0590 S   0  0  1  0  0  0  0  0  0  0  0  0
    2.5890   -4.6680   -0.2280 O   0  0  0  0  0  0  0  0  0  0  0  0
    0.2920   -4.2410   -0.7150 O   0  0  0  0  0  0  0  0  0  0  0  0
    1.9270   -2.0990   -0.4130 C   0  0  0  0  0  0  0  0  0  0  0  0
    3.3050   -1.8860   -0.5600 C   0  0  0  0  0  0  0  0  0  0  0  0
    4.1810   -2.8920   -0.3400 F   0  0  0  0  0  0  0  0  0  0  0  0
    3.8020   -0.6690   -0.9270 C   0  0  0  0  0  0  0  0  0  0  0  0
    5.1350   -0.4690   -1.0800 F   0  0  0  0  0  0  0  0  0  0  0  0
    2.9270    0.3580   -1.1530 C   0  0  0  0  0  0  0  0  0  0  0  0
    3.5210    1.9580   -1.6130 S   0  0  0  0  0  0  0  0  0  0  0  0
    3.8200    3.0500   -0.2330 C   0  0  0  0  0  0  0  0  0  0  0  0
    4.9200    2.6220    0.6850 C   0  0  0  0  0  0  0  0  0  0  0  0
    4.6000    1.3860    1.2270 O   0  0  0  0  0  0  0  0  0  0  0  0
    1.5690    0.1500   -1.0090 C   0  0  0  0  0  0  0  0  0  0  0  0
    0.7630    1.1830   -1.2670 F   0  0  0  0  0  0  0  0  0  0  0  0
    1.0150   -1.0680   -0.6370 C   0  0  0  0  0  0  0  0  0  0  0  0
   -0.3490   -1.3150   -0.4710 N   0  0  0  0  0  0  0  0  0  0  0  0
   -1.4470   -0.3690   -0.5380 C   0  0  2  0  0  0  0  0  0  0  0  0
   -1.4170    0.5340    0.6390 C   0  0  0  0  0  0  0  0  0  0  0  0
   -1.8700    1.9500    0.3800 C   0  0  0  0  0  0  0  0  0  0  0  0
   -3.1320    2.0350   -0.4500 C   0  0  0  0  0  0  0  0  0  0  0  0
   -4.2480    1.4980    0.3870 C   0  0  0  0  0  0  0  0  0  0  0  0
   -4.7780    0.1880   -0.0630 C   0  0  0  0  0  0  0  0  0  0  0  0
   -3.8160   -0.9750    0.1850 C   0  0  0  0  0  0  0  0  0  0  0  0
   -2.7420   -1.0550   -0.8240 C   0  0  0  0  0  0  0  0  0  0  0  0
  2  1  1  1
  2  3  2  0
  2  4  2  0
  2  5  1  0
  5  6  2  0
  5 17  1  0
  6  7  1  0
  6  8  1  0
  8  9  1  0
  8 10  2  0
 10 11  1  0
 10 15  1  0
 11 12  1  0
 12 13  1  0
 13 14  1  0
 15 16  1  0
 15 17  2  0
 17 18  1  0
 19 18  1  1
 19 20  1  0
 19 26  1  0
 20 21  1  0
 21 22  1  0
 22 23  1  0
 23 24  1  0
 24 25  1  0
 25 26  1  0
M  END
