
     RDKit          3D

 23 25  0  0  0  0  0  0  0  0999 V2000
    4.6770    1.0450   -0.1990 C   0  0  0  0  0  0  0  0  0  0  0  0
    3.9070   -0.1670   -0.6050 C   0  0  0  0  0  0  0  0  0  0  0  0
    2.4400   -0.1760   -0.6540 C   0  0  0  0  0  0  0  0  0  0  0  0
    1.6560   -0.0770    0.6080 C   0  0  1  0  0  0  0  0  0  0  0  0
    2.0210    1.3010    1.1640 C   0  0  0  0  0  0  0  0  0  0  0  0
    2.3090    2.3640    1.6130 N   0  0  0  0  0  0  0  0  0  0  0  0
    0.2240    0.0250    0.3370 C   0  0  0  0  0  0  0  0  0  0  0  0
   -0.4500    1.1120   -0.0450 N   0  0  0  0  0  0  0  0  0  0  0  0
   -1.7810    1.1750   -0.1680 C   0  0  0  0  0  0  0  0  0  0  0  0
   -2.3780    2.3560   -0.5810 C   0  0  0  0  0  0  0  0  0  0  0  0
   -1.4290    3.7700   -0.9110 Cl  0  0  0  0  0  0  0  0  0  0  0  0
   -3.7800    2.4020   -0.7080 C   0  0  0  0  0  0  0  0  0  0  0  0
   -4.5460    1.2930   -0.4310 C   0  0  0  0  0  0  0  0  0  0  0  0
   -6.2820    1.4340   -0.6600 Cl  0  0  0  0  0  0  0  0  0  0  0  0
   -3.9690    0.1030   -0.0250 C   0  0  0  0  0  0  0  0  0  0  0  0
   -2.5970    0.0770    0.0990 C   0  0  0  0  0  0  0  0  0  0  0  0
   -1.9530   -1.1020    0.5030 C   0  0  0  0  0  0  0  0  0  0  0  0
   -2.6890   -2.1970    0.7180 N   0  0  0  0  0  0  0  0  0  0  0  0
   -2.0790   -3.3250    1.0440 N   0  0  0  0  0  0  0  0  0  0  0  0
   -0.7580   -3.4110    1.1650 C   0  0  0  0  0  0  0  0  0  0  0  0
    0.0340   -2.2940    0.9510 C   0  0  0  0  0  0  0  0  0  0  0  0
    1.2750   -2.3790    1.0560 O   0  0  0  0  0  0  0  0  0  0  0  0
   -0.5520   -1.1100    0.6140 C   0  0  0  0  0  0  0  0  0  0  0  0
  1  2  1  0
  2  3  1  0
  4  3  1  6
  4  5  1  0
  4  7  1  0
  5  6  3  0
  7  8  2  0
  7 23  1  0
  8  9  1  0
  9 10  2  0
  9 16  1  0
 10 11  1  0
 10 12  1  0
 12 13  2  0
 13 14  1  0
 13 15  1  0
 15 16  2  0
 16 17  1  0
 17 18  1  0
 17 23  2  0
 18 19  1  0
 19 20  2  0
 20 21  1  0
 21 22  2  0
 21 23  1  0
M  END
