
     RDKit          3D

  9  9  0  0  0  0  0  0  0  0999 V2000
    2.6790   -0.1050    0.3140 C   0  0  0  0  0  0  0  0  0  0  0  0
    1.3920    0.0590    0.7980 O   0  0  0  0  0  0  0  0  0  0  0  0
    0.4190    0.0290   -0.1760 C   0  0  2  0  0  0  0  0  0  0  0  0
   -0.4090    1.3020   -0.0810 C   0  0  1  0  0  0  0  0  0  0  0  0
   -0.9930    1.6040   -1.3210 O   0  0  0  0  0  0  0  0  0  0  0  0
   -1.4460    0.9900    0.7900 O   0  0  0  0  0  0  0  0  0  0  0  0
   -1.8920   -0.2240    0.2700 C   0  0  0  0  0  0  0  0  0  0  0  0
   -0.5980   -1.0230    0.2120 C   0  0  1  0  0  0  0  0  0  0  0  0
   -0.6880   -2.0230   -0.7510 O   0  0  0  0  0  0  0  0  0  0  0  0
  1  2  1  0
  3  2  1  1
  3  4  1  0
  3  8  1  0
  4  5  1  6
  4  6  1  0
  6  7  1  0
  7  8  1  0
  8  9  1  6
M  END
