
     RDKit          3D

 10 10  0  0  0  0  0  0  0  0999 V2000
   -1.5570    0.2210   -1.2620 O   0  0  0  0  0  0  0  0  0  0  0  0
   -1.2850    0.2880    0.1000 C   0  0  1  0  0  0  0  0  0  0  0  0
   -1.2410   -1.1080    0.6470 C   0  0  0  0  0  0  0  0  0  0  0  0
    0.0060   -1.7020    0.5340 O   0  0  0  0  0  0  0  0  0  0  0  0
    0.7060   -1.2530   -0.5760 C   0  0  0  0  0  0  0  0  0  0  0  0
    1.1470    0.1710   -0.3310 C   0  0  2  0  0  0  0  0  0  0  0  0
    2.2390    0.2060    0.5290 O   0  0  0  0  0  0  0  0  0  0  0  0
    0.0530    0.9970    0.2830 C   0  0  2  0  0  0  0  0  0  0  0  0
    0.2220    1.2210    1.6350 O   0  0  0  0  0  0  0  0  0  0  0  0
   -0.0850    2.2480   -0.3340 O   0  0  0  0  0  0  0  0  0  0  0  0
  2  1  1  6
  2  3  1  0
  2  8  1  0
  3  4  1  0
  4  5  1  0
  5  6  1  0
  6  7  1  1
  6  8  1  0
  8  9  1  1
  8 10  1  0
M  END
