
     RDKit          3D

 28 29  0  0  0  0  0  0  0  0999 V2000
    2.7520    4.7800    1.2520 N   0  0  0  0  0  0  0  0  0  0  0  0
    3.1270    3.3330    2.1000 S   0  0  1  0  0  0  0  0  0  0  0  0
    4.5670    3.3510    2.5590 O   0  0  0  0  0  0  0  0  0  0  0  0
    2.2480    3.2380    3.3110 O   0  0  0  0  0  0  0  0  0  0  0  0
    2.8990    1.9150    1.1120 C   0  0  0  0  0  0  0  0  0  0  0  0
    3.9300    1.4310    0.3550 C   0  0  0  0  0  0  0  0  0  0  0  0
    5.1370    2.0400    0.3590 F   0  0  0  0  0  0  0  0  0  0  0  0
    3.7380    0.3110   -0.4190 C   0  0  0  0  0  0  0  0  0  0  0  0
    4.7300   -0.1940   -1.1770 F   0  0  0  0  0  0  0  0  0  0  0  0
    2.4940   -0.3290   -0.4320 C   0  0  0  0  0  0  0  0  0  0  0  0
    2.3650   -1.7500   -1.3890 S   0  0  1  0  0  0  0  0  0  0  0  0
    0.9580   -1.9400   -1.8480 O   0  0  0  0  0  0  0  0  0  0  0  0
    3.2150   -1.6210   -2.6310 O   0  0  0  0  0  0  0  0  0  0  0  0
    2.8030   -3.2250   -0.5080 C   0  0  0  0  0  0  0  0  0  0  0  0
    2.6440   -4.3950   -1.4730 C   0  0  0  0  0  0  0  0  0  0  0  0
    1.3350   -4.4950   -1.9330 O   0  0  0  0  0  0  0  0  0  0  0  0
    1.4250    0.1500    0.3330 C   0  0  0  0  0  0  0  0  0  0  0  0
    0.1480   -0.4260    0.3300 N   0  0  0  0  0  0  0  0  0  0  0  0
   -1.0020   -0.0200   -0.4320 C   0  0  2  0  0  0  0  0  0  0  0  0
   -1.5840    1.3000    0.0100 C   0  0  0  0  0  0  0  0  0  0  0  0
   -2.9060    1.6040   -0.6490 C   0  0  0  0  0  0  0  0  0  0  0  0
   -4.0070    1.7040    0.3800 C   0  0  0  0  0  0  0  0  0  0  0  0
   -4.9670    0.5640    0.3670 C   0  0  0  0  0  0  0  0  0  0  0  0
   -4.4090   -0.7400   -0.1050 C   0  0  0  0  0  0  0  0  0  0  0  0
   -3.0830   -1.1010    0.5070 C   0  0  0  0  0  0  0  0  0  0  0  0
   -1.9710   -1.1510   -0.5060 C   0  0  0  0  0  0  0  0  0  0  0  0
    1.6670    1.2810    1.0990 C   0  0  0  0  0  0  0  0  0  0  0  0
    0.7170    1.8050    1.8700 F   0  0  0  0  0  0  0  0  0  0  0  0
  2  1  1  6
  2  3  2  0
  2  4  2  0
  2  5  1  0
  5  6  2  0
  5 27  1  0
  6  7  1  0
  6  8  1  0
  8  9  1  0
  8 10  2  0
 10 11  1  0
 10 17  1  0
 11 12  2  0
 11 13  2  0
 11 14  1  1
 14 15  1  0
 15 16  1  0
 17 18  1  0
 17 27  2  0
 19 18  1  1
 19 20  1  0
 19 26  1  0
 20 21  1  0
 21 22  1  0
 22 23  1  0
 23 24  1  0
 24 25  1  0
 25 26  1  0
 27 28  1  0
M  END
