
     RDKit          3D

 32 33  0  0  0  0  0  0  0  0999 V2000
   -7.3080   -3.7200   -0.5400 C   0  0  0  0  0  0  0  0  0  0  0  0
   -7.1760   -3.0760    0.6560 O   0  0  0  0  0  0  0  0  0  0  0  0
   -6.6580   -1.8250    0.6520 C   0  0  0  0  0  0  0  0  0  0  0  0
   -5.2540   -1.6530    0.2960 C   0  0  0  0  0  0  0  0  0  0  0  0
   -4.4420   -2.7340    0.0800 C   0  0  0  0  0  0  0  0  0  0  0  0
   -3.1010   -2.5080   -0.2160 C   0  0  0  0  0  0  0  0  0  0  0  0
   -2.5410   -1.2450   -0.3040 C   0  0  0  0  0  0  0  0  0  0  0  0
   -1.1760   -1.0980   -0.6280 N   0  0  0  0  0  0  0  0  0  0  0  0
   -0.4720    0.1460   -0.4500 C   0  0  0  0  0  0  0  0  0  0  0  0
   -0.3260    0.4460    1.0240 C   0  0  0  0  0  0  0  0  0  0  0  0
    0.3810   -0.5620    1.6280 O   0  0  0  0  0  0  0  0  0  0  0  0
    1.6610   -0.7700    1.2030 C   0  0  2  0  0  0  0  0  0  0  0  0
    1.8920   -2.1840    0.7050 C   0  0  0  0  0  0  0  0  0  0  0  0
    2.6090   -0.5520    2.3620 C   0  0  0  0  0  0  0  0  0  0  0  0
    3.9980   -0.7520    2.0070 N   0  0  0  0  0  0  0  0  0  0  0  0
    4.6990   -0.0310    1.0330 C   0  0  0  0  0  0  0  0  0  0  0  0
    4.0770    0.8770    0.4050 O   0  0  0  0  0  0  0  0  0  0  0  0
    6.0480   -0.2230    0.6840 N   0  0  0  0  0  0  0  0  0  0  0  0
    6.7150    0.5620   -0.3350 C   0  0  0  0  0  0  0  0  0  0  0  0
    7.7630    1.2610    0.0330 C   0  0  0  0  0  0  0  0  0  0  0  0
    8.5350    2.0980   -0.8800 C   0  0  1  0  0  0  0  0  0  0  0  0
    9.8640    1.6230   -0.8500 O   0  0  0  0  0  0  0  0  0  0  0  0
    8.0350    2.0710   -2.1740 O   0  0  0  0  0  0  0  0  0  0  0  0
    6.9340    1.3330   -2.5480 C   0  0  0  0  0  0  0  0  0  0  0  0
    6.2590    0.5840   -1.6940 C   0  0  0  0  0  0  0  0  0  0  0  0
   -3.3740   -0.1820   -0.0830 C   0  0  0  0  0  0  0  0  0  0  0  0
   -4.7060   -0.3630    0.2120 C   0  0  0  0  0  0  0  0  0  0  0  0
   -5.5710    0.7010    0.4410 O   0  0  0  0  0  0  0  0  0  0  0  0
   -5.0910    2.3680    0.3840 P   0  0  0  0  0  0  0  0  0  0  0  0
   -5.1940    3.0920   -1.3110 C   0  0  0  0  0  0  0  0  0  0  0  0
   -3.5770    2.6590    1.1390 O   0  0  0  0  0  0  0  0  0  0  0  0
   -3.0230    3.8750    0.7900 C   0  0  0  0  0  0  0  0  0  0  0  0
  1  2  1  0
  2  3  1  0
  3  4  1  0
  4  5  2  0
  4 27  1  0
  5  6  1  0
  6  7  2  0
  7  8  1  0
  7 26  1  0
  8  9  1  0
  9 10  1  0
 10 11  1  0
 11 12  1  0
 12 13  1  1
 12 14  1  0
 14 15  1  0
 15 16  1  0
 16 17  2  0
 16 18  1  0
 18 19  1  0
 19 20  2  0
 19 25  1  0
 20 21  1  0
 21 22  1  6
 21 23  1  0
 23 24  1  0
 24 25  2  0
 26 27  2  0
 27 28  1  0
 28 29  1  0
 29 30  1  0
 29 31  1  0
 31 32  1  0
M  END
