
     RDKit          3D

 31 32  0  0  0  0  0  0  0  0999 V2000
    0.7120   -2.2950    0.6940 C   0  0  0  0  0  0  0  0  0  0  0  0
    1.2930   -0.8950    0.5880 C   0  0  2  0  0  0  0  0  0  0  0  0
    2.8150   -0.9620    0.5880 C   0  0  0  0  0  0  0  0  0  0  0  0
    3.3630   -1.7590   -0.5530 C   0  0  0  0  0  0  0  0  0  0  0  0
    4.7960   -1.7910   -0.4910 N   0  0  0  0  0  0  0  0  0  0  0  0
    5.6300   -0.6740   -0.7600 C   0  0  0  0  0  0  0  0  0  0  0  0
    5.1130    0.5280   -1.1850 C   0  0  0  0  0  0  0  0  0  0  0  0
    5.9960    1.5700   -1.3940 C   0  0  0  0  0  0  0  0  0  0  0  0
    7.3720    1.4190   -1.1850 C   0  0  0  0  0  0  0  0  0  0  0  0
    7.8470    0.2000   -0.7610 C   0  0  0  0  0  0  0  0  0  0  0  0
    6.9810   -0.7910   -0.5650 N   0  0  0  0  0  0  0  0  0  0  0  0
    9.2460    0.3090   -0.6290 O   0  0  0  0  0  0  0  0  0  0  0  0
    9.6640    1.5780   -1.0460 C   0  0  2  0  0  0  0  0  0  0  0  0
   10.5070    2.2860   -0.0100 C   0  0  0  0  0  0  0  0  0  0  0  0
    8.4600    2.2530   -1.3070 O   0  0  0  0  0  0  0  0  0  0  0  0
    0.9190   -0.1560    1.8540 C   0  0  0  0  0  0  0  0  0  0  0  0
   -0.4480   -0.1080    2.0040 O   0  0  0  0  0  0  0  0  0  0  0  0
   -1.3160    0.4820    1.1210 C   0  0  0  0  0  0  0  0  0  0  0  0
   -0.8850    1.0380    0.0900 O   0  0  0  0  0  0  0  0  0  0  0  0
   -2.7570    0.4210    1.4580 C   0  0  2  0  0  0  0  0  0  0  0  0
   -2.9700    1.2860    2.6900 C   0  0  0  0  0  0  0  0  0  0  0  0
   -2.9950   -1.0430    1.8960 C   0  0  0  0  0  0  0  0  0  0  0  0
   -3.6690    0.7680    0.3240 C   0  0  0  0  0  0  0  0  0  0  0  0
   -3.4450   -0.1420   -0.7510 N   0  0  0  0  0  0  0  0  0  0  0  0
   -4.3390    0.0040   -1.8650 C   0  0  0  0  0  0  0  0  0  0  0  0
   -5.7100   -0.4650   -1.4330 C   0  0  0  0  0  0  0  0  0  0  0  0
   -6.7390   -0.3650   -2.5430 C   0  0  0  0  0  0  0  0  0  0  0  0
   -8.0840   -0.8500   -2.1110 C   0  0  0  0  0  0  0  0  0  0  0  0
   -8.8090    0.0530   -0.6920 P   0  0  0  0  0  0  0  0  0  0  0  0
   -8.2430   -0.4840    0.8410 O   0  0  0  0  0  0  0  0  0  0  0  0
   -8.7630    1.7580   -0.8770 O   0  0  0  0  0  0  0  0  0  0  0  0
  2  1  1  1
  2  3  1  0
  2 16  1  0
  3  4  1  0
  4  5  1  0
  5  6  1  0
  6  7  2  0
  6 11  1  0
  7  8  1  0
  8  9  2  0
  9 10  1  0
  9 15  1  0
 10 11  2  0
 10 12  1  0
 12 13  1  0
 13 14  1  1
 13 15  1  0
 16 17  1  0
 17 18  1  0
 18 19  2  0
 18 20  1  0
 20 21  1  1
 20 22  1  0
 20 23  1  0
 23 24  1  0
 24 25  1  0
 25 26  1  0
 26 27  1  0
 27 28  1  0
 28 29  1  0
 29 30  1  0
 29 31  1  0
M  END
