
     RDKit          3D

 31 31  0  0  0  0  0  0  0  0999 V2000
   -7.0680   -1.0470    2.5180 C   0  0  0  0  0  0  0  0  0  0  0  0
   -6.4120    0.1700    1.9060 C   0  0  0  0  0  0  0  0  0  0  0  0
   -5.0390    0.1300    2.1360 O   0  0  0  0  0  0  0  0  0  0  0  0
   -4.2070    1.4710    1.4780 P   0  0  0  0  0  0  0  0  0  0  0  0
   -3.3060    1.0610   -0.0890 C   0  0  0  0  0  0  0  0  0  0  0  0
   -3.7830   -0.2910   -0.5610 C   0  0  0  0  0  0  0  0  0  0  0  0
   -3.1390   -0.7540   -1.8220 C   0  0  0  0  0  0  0  0  0  0  0  0
   -1.7230   -0.9020   -1.7880 N   0  0  0  0  0  0  0  0  0  0  0  0
   -1.0540   -1.8030   -0.8800 C   0  0  0  0  0  0  0  0  0  0  0  0
   -1.7900   -2.4460   -0.1230 O   0  0  0  0  0  0  0  0  0  0  0  0
    0.3990   -1.9600   -0.8400 C   0  0  2  0  0  0  0  0  0  0  0  0
    0.9750   -2.3040   -2.2060 C   0  0  0  0  0  0  0  0  0  0  0  0
    0.7580   -3.0190    0.1700 C   0  0  0  0  0  0  0  0  0  0  0  0
    0.2180   -4.3750   -0.0980 C   0  0  0  0  0  0  0  0  0  0  0  0
    0.6770   -5.1990    0.9590 O   0  0  0  0  0  0  0  0  0  0  0  0
    1.0860   -0.7110   -0.3950 C   0  0  0  0  0  0  0  0  0  0  0  0
    0.3590    0.2760   -0.1230 O   0  0  0  0  0  0  0  0  0  0  0  0
    2.4410   -0.5970   -0.2720 O   0  0  0  0  0  0  0  0  0  0  0  0
    3.1140    0.5750    0.1480 C   0  0  0  0  0  0  0  0  0  0  0  0
    4.5720    0.2980    0.1520 C   0  0  0  0  0  0  0  0  0  0  0  0
    5.1920   -0.8840   -0.1890 C   0  0  0  0  0  0  0  0  0  0  0  0
    6.5290   -0.7590   -0.0640 N   0  0  0  0  0  0  0  0  0  0  0  0
    6.8000    0.4870    0.3540 C   0  0  0  0  0  0  0  0  0  0  0  0
    8.1450    1.0250    0.6120 C   0  0  0  0  0  0  0  0  0  0  0  0
    9.1750    0.3290    0.4550 O   0  0  0  0  0  0  0  0  0  0  0  0
    8.3090    2.3650    1.0530 N   0  0  0  0  0  0  0  0  0  0  0  0
    9.6320    2.8990    1.3090 C   0  0  0  0  0  0  0  0  0  0  0  0
    5.6040    1.1570    0.4930 C   0  0  0  0  0  0  0  0  0  0  0  0
   -5.1570    2.8890    1.3520 O   0  0  0  0  0  0  0  0  0  0  0  0
   -5.3600    3.3280    0.0640 C   0  0  0  0  0  0  0  0  0  0  0  0
   -6.2190    4.5880    0.1520 C   0  0  0  0  0  0  0  0  0  0  0  0
  1  2  1  0
  2  3  1  0
  3  4  1  0
  4  5  1  0
  4 29  1  0
  5  6  1  0
  6  7  1  0
  7  8  1  0
  8  9  1  0
  9 10  2  0
  9 11  1  0
 11 12  1  6
 11 13  1  0
 11 16  1  0
 13 14  1  0
 14 15  1  0
 16 17  2  0
 16 18  1  0
 18 19  1  0
 19 20  1  0
 20 21  2  0
 20 28  1  0
 21 22  1  0
 22 23  1  0
 23 24  1  0
 23 28  2  0
 24 25  2  0
 24 26  1  0
 26 27  1  0
 29 30  1  0
 30 31  1  0
M  END
