
     RDKit          3D

 32 32  0  0  0  0  0  0  0  0999 V2000
    8.6380    0.6430    1.1360 C   0  0  0  0  0  0  0  0  0  0  0  0
    7.1760    0.5440    1.1830 C   0  0  0  0  0  0  0  0  0  0  0  0
    6.4240    0.1800    0.2000 C   0  0  0  0  0  0  0  0  0  0  0  0
    4.9430    0.1370    0.4380 C   0  0  0  0  0  0  0  0  0  0  0  0
    4.2000   -0.2260   -0.5400 O   0  0  0  0  0  0  0  0  0  0  0  0
    4.3090    0.4610    1.6350 N   0  0  0  0  0  0  0  0  0  0  0  0
    2.9180    0.4350    1.9160 C   0  0  0  0  0  0  0  0  0  0  0  0
    2.4510    1.0500    3.0860 C   0  0  0  0  0  0  0  0  0  0  0  0
    1.1380    1.0690    3.4460 C   0  0  0  0  0  0  0  0  0  0  0  0
    0.2250    0.4590    2.6270 C   0  0  0  0  0  0  0  0  0  0  0  0
    0.6080   -0.1630    1.4650 C   0  0  0  0  0  0  0  0  0  0  0  0
   -0.3840   -0.7990    0.6150 C   0  0  0  0  0  0  0  0  0  0  0  0
    0.0090   -1.3690   -0.4360 O   0  0  0  0  0  0  0  0  0  0  0  0
   -1.7300   -0.8060    0.9070 O   0  0  0  0  0  0  0  0  0  0  0  0
   -2.7250   -1.4130    0.1080 C   0  0  0  0  0  0  0  0  0  0  0  0
   -4.0480   -1.1410    0.8360 C   0  0  0  0  0  0  0  0  0  0  0  0
   -5.1240   -1.6920    0.1470 N   0  0  0  0  0  0  0  0  0  0  0  0
   -5.6030   -1.2910   -1.0630 C   0  0  0  0  0  0  0  0  0  0  0  0
   -6.4170   -0.0660   -1.3310 C   0  0  1  0  0  0  0  0  0  0  0  0
   -7.7230   -0.0710   -0.6010 C   0  0  1  0  0  0  0  0  0  0  0  0
   -8.7060    0.8250   -1.3630 C   0  0  0  0  0  0  0  0  0  0  0  0
   -8.2500   -1.3760   -0.6900 O   0  0  0  0  0  0  0  0  0  0  0  0
   -5.7590    1.1910   -1.3270 N   0  0  0  0  0  0  0  0  0  0  0  0
   -5.3550    1.7890   -2.6210 C   0  0  0  0  0  0  0  0  0  0  0  0
   -5.4310    1.9660   -0.1890 C   0  0  0  0  0  0  0  0  0  0  0  0
   -5.8090    1.5910    0.9420 O   0  0  0  0  0  0  0  0  0  0  0  0
    1.9600   -0.1620    1.1310 C   0  0  0  0  0  0  0  0  0  0  0  0
    6.8050   -0.2170   -1.1690 C   0  0  2  0  0  0  0  0  0  0  0  0
    6.3440   -1.6680   -1.3540 C   0  0  0  0  0  0  0  0  0  0  0  0
    8.5630   -0.0690   -1.5530 P   0  0  0  0  0  0  0  0  0  0  0  0
    8.9500    1.4080   -2.3920 O   0  0  0  0  0  0  0  0  0  0  0  0
    9.1750   -1.4240   -2.4590 O   0  0  0  0  0  0  0  0  0  0  0  0
  1  2  1  0
  2  3  2  3
  3  4  1  0
  3 28  1  0
  4  5  2  0
  4  6  1  0
  6  7  1  0
  7  8  2  0
  7 27  1  0
  8  9  1  0
  9 10  2  0
 10 11  1  0
 11 12  1  0
 11 27  2  0
 12 13  2  0
 12 14  1  0
 14 15  1  0
 15 16  1  0
 16 17  1  0
 17 18  1  0
 19 18  1  1
 19 20  1  0
 19 23  1  0
 20 21  1  6
 20 22  1  0
 23 24  1  0
 23 25  1  0
 25 26  2  0
 28 29  1  1
 28 30  1  0
 30 31  1  0
 30 32  1  0
M  END
