
     RDKit          3D

 32 33  0  0  0  0  0  0  0  0999 V2000
    6.7480    2.2300   -0.7150 C   0  0  0  0  0  0  0  0  0  0  0  0
    7.7680    1.2300   -0.2400 C   0  0  0  0  0  0  0  0  0  0  0  0
    7.2580   -0.1580   -0.0290 C   0  0  0  0  0  0  0  0  0  0  0  0
    6.1860   -0.3200    1.0030 C   0  0  0  0  0  0  0  0  0  0  0  0
    4.9910    0.4130    0.6780 N   0  0  0  0  0  0  0  0  0  0  0  0
    4.2090    0.1450   -0.5100 C   0  0  0  0  0  0  0  0  0  0  0  0
    4.6610   -0.7850   -1.2250 O   0  0  0  0  0  0  0  0  0  0  0  0
    3.0190    0.9490   -0.7570 C   0  0  2  0  0  0  0  0  0  0  0  0
    2.8340    1.8460    0.2850 O   0  0  0  0  0  0  0  0  0  0  0  0
    2.2000    1.3490    1.3940 C   0  0  0  0  0  0  0  0  0  0  0  0
    0.7720    1.9240    1.3810 C   0  0  0  0  0  0  0  0  0  0  0  0
    0.0560    1.1690    0.4370 O   0  0  0  0  0  0  0  0  0  0  0  0
    0.5140    0.3340   -0.5700 C   0  0  0  0  0  0  0  0  0  0  0  0
   -0.5510   -0.4460   -1.0270 C   0  0  0  0  0  0  0  0  0  0  0  0
   -1.8590   -0.2690   -0.4510 N   0  0  0  0  0  0  0  0  0  0  0  0
   -2.9310   -1.0940   -0.9110 C   0  0  0  0  0  0  0  0  0  0  0  0
   -4.2540   -0.5560   -0.3960 C   0  0  1  0  0  0  0  0  0  0  0  0
   -5.3700   -1.5050   -0.9610 C   0  0  0  0  0  0  0  0  0  0  0  0
   -5.2110   -2.9050   -0.5220 C   0  0  0  0  0  0  0  0  0  0  0  0
   -5.3270   -3.0370    0.9050 N   0  0  0  0  0  0  0  0  0  0  0  0
   -5.1860   -4.3200    1.5430 C   0  0  0  0  0  0  0  0  0  0  0  0
   -4.9580   -5.3240    0.8260 O   0  0  0  0  0  0  0  0  0  0  0  0
   -5.2960   -4.4790    2.9170 O   0  0  0  0  0  0  0  0  0  0  0  0
   -4.3780   -0.4220    0.9170 O   0  0  0  0  0  0  0  0  0  0  0  0
   -4.8020    0.6080    1.6110 C   0  0  0  0  0  0  0  0  0  0  0  0
   -4.0610    1.8880    1.5590 C   0  0  0  0  0  0  0  0  0  0  0  0
   -3.9310    2.6270    0.2890 C   0  0  0  0  0  0  0  0  0  0  0  0
   -3.2240    3.8360    0.5760 O   0  0  0  0  0  0  0  0  0  0  0  0
   -0.3800   -1.3640   -2.0270 C   0  0  0  0  0  0  0  0  0  0  0  0
    0.8800   -1.4960   -2.5720 C   0  0  0  0  0  0  0  0  0  0  0  0
    1.9430   -0.7020   -2.1030 C   0  0  0  0  0  0  0  0  0  0  0  0
    1.7870    0.2110   -1.1110 C   0  0  0  0  0  0  0  0  0  0  0  0
  1  2  1  0
  2  3  1  0
  3  4  1  0
  4  5  1  0
  5  6  1  0
  6  7  2  0
  8  6  1  1
  8  9  1  0
  8 32  1  0
  9 10  1  0
 10 11  1  0
 11 12  1  0
 12 13  1  0
 13 14  2  0
 13 32  1  0
 14 15  1  0
 14 29  1  0
 15 16  1  0
 17 16  1  1
 17 18  1  0
 17 24  1  0
 18 19  1  0
 19 20  1  0
 20 21  1  0
 21 22  2  0
 21 23  1  0
 24 25  1  0
 25 26  1  0
 26 27  1  0
 27 28  1  0
 29 30  2  0
 30 31  1  0
 31 32  2  0
M  END
