
     RDKit          3D

 32 32  0  0  0  0  0  0  0  0999 V2000
   -0.0730   -5.2830   -1.5800 C   0  0  0  0  0  0  0  0  0  0  0  0
   -0.5920   -5.0400   -0.1870 C   0  0  0  0  0  0  0  0  0  0  0  0
   -0.0210   -3.8540    0.4130 N   0  0  0  0  0  0  0  0  0  0  0  0
   -0.1950   -2.5700   -0.1810 C   0  0  0  0  0  0  0  0  0  0  0  0
   -0.8590   -2.5380   -1.2320 O   0  0  0  0  0  0  0  0  0  0  0  0
    0.3910   -1.3430    0.4330 C   0  0  1  0  0  0  0  0  0  0  0  0
   -0.5980   -0.3660    0.9300 C   0  0  0  0  0  0  0  0  0  0  0  0
   -1.5070    0.1500   -0.0930 C   0  0  0  0  0  0  0  0  0  0  0  0
   -1.5500   -0.1280   -1.3020 O   0  0  0  0  0  0  0  0  0  0  0  0
   -2.4840    1.1060    0.3520 N   0  0  0  0  0  0  0  0  0  0  0  0
   -2.5410    1.5090    1.7360 C   0  0  0  0  0  0  0  0  0  0  0  0
   -3.4420    1.7020   -0.5700 C   0  0  0  0  0  0  0  0  0  0  0  0
   -4.9400    0.6230   -0.5910 P   0  0  0  0  0  0  0  0  0  0  0  0
   -5.6580    0.5430   -2.1650 O   0  0  0  0  0  0  0  0  0  0  0  0
   -6.9830    0.1470   -2.1100 C   0  0  0  0  0  0  0  0  0  0  0  0
   -7.5180    0.1090   -3.5180 C   0  0  0  0  0  0  0  0  0  0  0  0
   -6.0850    1.0540    0.6230 O   0  0  0  0  0  0  0  0  0  0  0  0
   -6.3060    2.4250    0.6910 C   0  0  0  0  0  0  0  0  0  0  0  0
   -7.3250    2.6530    1.7930 C   0  0  0  0  0  0  0  0  0  0  0  0
    1.0970   -1.8160    1.5570 O   0  0  0  0  0  0  0  0  0  0  0  0
    1.9350   -0.9280    2.1290 C   0  0  0  0  0  0  0  0  0  0  0  0
    3.0800   -0.5810    1.1750 C   0  0  0  0  0  0  0  0  0  0  0  0
    4.1650   -0.1780    1.7350 C   0  0  0  0  0  0  0  0  0  0  0  0
    5.4500    0.2410    1.2160 C   0  0  0  0  0  0  0  0  0  0  0  0
    5.6160    0.1600   -0.2440 C   0  0  0  0  0  0  0  0  0  0  0  0
    7.0390    0.6510   -0.6100 C   0  0  0  0  0  0  0  0  0  0  0  0
    7.1740    2.0730   -0.1630 C   0  0  0  0  0  0  0  0  0  0  0  0
    8.5800    2.5250   -0.5890 C   0  0  0  0  0  0  0  0  0  0  0  0
    8.6830    3.8580   -0.1610 O   0  0  0  0  0  0  0  0  0  0  0  0
    2.7490   -0.7510   -0.1790 N   0  0  0  0  0  0  0  0  0  0  0  0
    1.3320   -0.6930   -0.5110 C   0  0  0  0  0  0  0  0  0  0  0  0
    0.9740   -0.1210   -1.5370 O   0  0  0  0  0  0  0  0  0  0  0  0
  1  2  1  0
  2  3  1  0
  3  4  1  0
  4  5  2  0
  4  6  1  0
  6  7  1  1
  6 20  1  0
  6 31  1  0
  7  8  1  0
  8  9  2  0
  8 10  1  0
 10 11  1  0
 10 12  1  0
 12 13  1  0
 13 14  1  0
 13 17  1  0
 14 15  1  0
 15 16  1  0
 17 18  1  0
 18 19  1  0
 20 21  1  0
 21 22  1  0
 22 23  2  3
 22 30  1  0
 23 24  1  0
 24 25  1  0
 25 26  1  0
 26 27  1  0
 27 28  1  0
 28 29  1  0
 30 31  1  0
 31 32  2  0
M  END
