
     RDKit          3D

 32 32  0  0  0  0  0  0  0  0999 V2000
    7.7410    2.4830    0.3730 C   0  0  0  0  0  0  0  0  0  0  0  0
    7.7290    1.5010   -0.8250 C   0  0  0  0  0  0  0  0  0  0  0  0
    6.3610    1.1390   -0.7910 O   0  0  0  0  0  0  0  0  0  0  0  0
    6.2750   -0.5580   -0.7010 P   0  0  0  0  0  0  0  0  0  0  0  0
    4.7350   -0.9400    0.2880 C   0  0  0  0  0  0  0  0  0  0  0  0
    3.9330    0.3980    0.2890 C   0  0  0  0  0  0  0  0  0  0  0  0
    2.6460   -0.0630    0.8080 N   0  0  0  0  0  0  0  0  0  0  0  0
    2.1250   -0.9440   -0.2420 C   0  0  0  0  0  0  0  0  0  0  0  0
    1.8490    0.9310    1.3370 C   0  0  0  0  0  0  0  0  0  0  0  0
    1.0020    1.8110    0.4910 C   0  0  0  0  0  0  0  0  0  0  0  0
    0.0390    1.0850   -0.2710 N   0  0  0  0  0  0  0  0  0  0  0  0
   -0.7170    0.0130    0.3790 C   0  0  0  0  0  0  0  0  0  0  0  0
   -0.3990   -0.2070    1.6040 O   0  0  0  0  0  0  0  0  0  0  0  0
   -1.7100   -0.7830   -0.3110 C   0  0  0  0  0  0  0  0  0  0  0  0
   -2.1020    0.0230   -1.5170 N   0  0  0  0  0  0  0  0  0  0  0  0
   -3.4160    0.4490   -1.4920 C   0  0  0  0  0  0  0  0  0  0  0  0
   -4.0740    0.1240   -0.3820 O   0  0  0  0  0  0  0  0  0  0  0  0
   -4.3540    1.2030   -2.3240 O   0  0  0  0  0  0  0  0  0  0  0  0
   -5.5630    1.1290   -1.4220 C   0  0  0  0  0  0  0  0  0  0  0  0
   -6.4600    0.1400   -1.6920 C   0  0  0  0  0  0  0  0  0  0  0  0
   -7.5690   -0.0210   -0.8020 C   0  0  0  0  0  0  0  0  0  0  0  0
   -7.6890    0.7990    0.2750 C   0  0  0  0  0  0  0  0  0  0  0  0
   -8.5170    0.2780    1.4360 C   0  0  1  0  0  0  0  0  0  0  0  0
   -9.8300   -0.3290    1.0900 C   0  0  0  0  0  0  0  0  0  0  0  0
   -7.6390   -0.9690    1.8370 C   0  0  0  0  0  0  0  0  0  0  0  0
   -8.1340   -2.1010    2.0160 O   0  0  0  0  0  0  0  0  0  0  0  0
   -6.2540   -0.7880    2.0050 O   0  0  0  0  0  0  0  0  0  0  0  0
   -6.7840    1.7970    0.5340 C   0  0  0  0  0  0  0  0  0  0  0  0
   -5.6910    1.9530   -0.3630 C   0  0  0  0  0  0  0  0  0  0  0  0
    7.6120   -1.4250   -0.1680 O   0  0  0  0  0  0  0  0  0  0  0  0
    7.3110   -2.1960    0.9540 C   0  0  0  0  0  0  0  0  0  0  0  0
    7.6300   -3.6420    0.5280 C   0  0  0  0  0  0  0  0  0  0  0  0
  1  2  1  0
  2  3  1  0
  3  4  1  0
  4  5  1  0
  4 30  1  0
  5  6  1  0
  6  7  1  0
  7  8  1  0
  7  9  1  0
  9 10  1  0
 10 11  1  0
 11 12  1  0
 12 13  2  0
 12 14  1  0
 14 15  1  0
 15 16  1  0
 16 17  2  0
 16 18  1  0
 18 19  1  0
 19 20  2  0
 19 29  1  0
 20 21  1  0
 21 22  2  0
 22 23  1  0
 22 28  1  0
 23 24  1  6
 23 25  1  0
 25 26  2  0
 25 27  1  0
 28 29  2  0
 30 31  1  0
 31 32  1  0
M  END
