
     RDKit          3D

 17 18  0  0  0  0  0  0  0  0999 V2000
   -3.5140    1.8210   -0.6300 C   0  0  0  0  0  0  0  0  0  0  0  0
   -3.4100    0.6820    0.3030 C   0  0  0  0  0  0  0  0  0  0  0  0
   -2.5160   -0.2520    0.1480 C   0  0  0  0  0  0  0  0  0  0  0  0
   -2.4690   -1.3720    1.1250 C   0  0  0  0  0  0  0  0  0  0  0  0
   -1.5560   -0.1820   -0.9730 C   0  0  0  0  0  0  0  0  0  0  0  0
   -0.1740   -0.1730   -0.5780 N   0  0  0  0  0  0  0  0  0  0  0  0
    0.4610   -1.3430   -0.4510 C   0  0  0  0  0  0  0  0  0  0  0  0
   -0.1480   -2.6830   -0.6860 C   0  0  0  0  0  0  0  0  0  0  0  0
    1.8120   -1.3600   -0.0680 C   0  0  0  0  0  0  0  0  0  0  0  0
    2.5150   -0.2110    0.1850 C   0  0  0  0  0  0  0  0  0  0  0  0
    3.8430   -0.2670    0.5600 C   0  0  0  0  0  0  0  0  0  0  0  0
    4.4930    0.9030    0.7990 C   0  0  0  0  0  0  0  0  0  0  0  0
    3.8600    2.1340    0.6760 C   0  0  0  0  0  0  0  0  0  0  0  0
    2.5310    2.1530    0.2990 C   0  0  0  0  0  0  0  0  0  0  0  0
    1.8410    0.9830    0.0480 C   0  0  0  0  0  0  0  0  0  0  0  0
    0.5020    0.9690   -0.3330 C   0  0  0  0  0  0  0  0  0  0  0  0
   -0.0720    2.0920   -0.4440 O   0  0  0  0  0  0  0  0  0  0  0  0
  1  2  1  0
  2  3  2  3
  3  4  1  0
  3  5  1  0
  5  6  1  0
  6  7  1  0
  6 16  1  0
  7  8  1  0
  7  9  2  0
  9 10  1  0
 10 11  2  0
 10 15  1  0
 11 12  1  0
 12 13  2  0
 13 14  1  0
 14 15  2  0
 15 16  1  0
 16 17  2  0
M  END
