
     RDKit          3D

 17 18  0  0  0  0  0  0  0  0999 V2000
    3.1100    0.2640   -2.3310 C   0  0  0  0  0  0  0  0  0  0  0  0
    3.3250    0.5840   -0.8870 C   0  0  0  0  0  0  0  0  0  0  0  0
    4.4040    1.1980   -0.4300 C   0  0  0  0  0  0  0  0  0  0  0  0
    4.2970    1.3590    1.0310 C   0  0  0  0  0  0  0  0  0  0  0  0
    2.9840    0.7380    1.3370 C   0  0  0  0  0  0  0  0  0  0  0  0
    2.4250    0.2920    0.2230 C   0  0  0  0  0  0  0  0  0  0  0  0
    1.1370   -0.3720    0.1410 N   0  0  0  0  0  0  0  0  0  0  0  0
    1.1530   -1.7070   -0.3970 C   0  0  0  0  0  0  0  0  0  0  0  0
   -0.0320    0.2850    0.5650 C   0  0  0  0  0  0  0  0  0  0  0  0
    0.1070    1.4830    1.0140 O   0  0  0  0  0  0  0  0  0  0  0  0
   -1.4110   -0.2510    0.5520 C   0  0  1  0  0  0  0  0  0  0  0  0
   -1.5650   -1.4480    1.4790 C   0  0  0  0  0  0  0  0  0  0  0  0
   -2.3320    0.8300    1.0560 C   0  0  0  0  0  0  0  0  0  0  0  0
   -3.7630    0.6730    0.6750 C   0  0  0  0  0  0  0  0  0  0  0  0
   -3.8090    0.7240   -0.8570 C   0  0  0  0  0  0  0  0  0  0  0  0
   -3.1270   -0.5530   -1.2910 C   0  0  0  0  0  0  0  0  0  0  0  0
   -1.7160   -0.6890   -0.8480 C   0  0  0  0  0  0  0  0  0  0  0  0
  1  2  1  0
  2  3  2  0
  2  6  1  0
  3  4  1  0
  4  5  1  0
  5  6  2  0
  6  7  1  0
  7  8  1  0
  7  9  1  0
  9 10  2  0
  9 11  1  0
 11 12  1  1
 11 13  1  0
 11 17  1  0
 13 14  1  0
 14 15  1  0
 15 16  1  0
 16 17  1  0
M  END
