
     RDKit          3D

 17 17  0  0  0  0  0  0  0  0999 V2000
   -2.3210   -1.8780    1.8350 C   0  0  0  0  0  0  0  0  0  0  0  0
   -2.0830   -0.7730    1.1800 C   0  0  0  0  0  0  0  0  0  0  0  0
   -2.6730    0.5360    1.5480 C   0  0  0  0  0  0  0  0  0  0  0  0
   -2.6260    1.4590    0.3790 C   0  0  0  0  0  0  0  0  0  0  0  0
   -1.2430    1.7000   -0.1850 C   0  0  2  0  0  0  0  0  0  0  0  0
   -0.4680    2.6980    0.6310 C   0  0  0  0  0  0  0  0  0  0  0  0
   -1.3950    2.1250   -1.6230 C   0  0  0  0  0  0  0  0  0  0  0  0
   -0.4670    0.4360   -0.2090 N   0  0  0  0  0  0  0  0  0  0  0  0
    0.9040    0.4830   -0.4710 C   0  0  0  0  0  0  0  0  0  0  0  0
    1.4660    1.5910   -0.7900 O   0  0  0  0  0  0  0  0  0  0  0  0
    1.8010   -0.6660   -0.4020 C   0  0  0  0  0  0  0  0  0  0  0  0
    3.2700   -0.2510   -0.5480 C   0  0  1  0  0  0  0  0  0  0  0  0
    3.6390    0.7040    0.5540 C   0  0  0  0  0  0  0  0  0  0  0  0
    4.0710   -1.5370   -0.4900 C   0  0  0  0  0  0  0  0  0  0  0  0
   -1.2050   -0.7890    0.0180 C   0  0  0  0  0  0  0  0  0  0  0  0
   -1.0720   -1.7730   -0.8230 C   0  0  0  0  0  0  0  0  0  0  0  0
   -1.7750   -3.0790   -0.7810 C   0  0  0  0  0  0  0  0  0  0  0  0
  1  2  2  0
  2  3  1  0
  2 15  1  0
  3  4  1  0
  4  5  1  0
  5  6  1  1
  5  7  1  0
  5  8  1  0
  8  9  1  0
  8 15  1  0
  9 10  2  0
  9 11  1  0
 11 12  1  0
 12 13  1  1
 12 14  1  0
 15 16  2  3
 16 17  1  0
M  END
