
     RDKit          3D

 17 18  0  0  0  0  0  0  0  0999 V2000
    1.6070   -2.8210    0.9040 C   0  0  0  0  0  0  0  0  0  0  0  0
    0.7330   -1.8670    0.5890 C   0  0  0  0  0  0  0  0  0  0  0  0
    0.9350   -0.5910    0.1520 C   0  0  0  0  0  0  0  0  0  0  0  0
    2.0120    0.0770   -0.0870 C   0  0  0  0  0  0  0  0  0  0  0  0
    3.3940   -0.2830    0.0220 C   0  0  0  0  0  0  0  0  0  0  0  0
    4.3180    0.6150   -0.2940 C   0  0  0  0  0  0  0  0  0  0  0  0
    3.8930    1.9490   -0.7440 C   0  0  0  0  0  0  0  0  0  0  0  0
   -0.3530   -0.0400   -0.0220 C   0  0  0  0  0  0  0  0  0  0  0  0
   -0.7910    1.2100   -0.4430 C   0  0  0  0  0  0  0  0  0  0  0  0
   -2.1260    1.5290   -0.5370 C   0  0  0  0  0  0  0  0  0  0  0  0
   -2.5550    2.7900   -0.9620 O   0  0  0  0  0  0  0  0  0  0  0  0
   -3.8970    3.1470   -1.0700 C   0  0  0  0  0  0  0  0  0  0  0  0
   -3.0550    0.5670   -0.2000 C   0  0  0  0  0  0  0  0  0  0  0  0
   -2.6300   -0.6750    0.2190 C   0  0  0  0  0  0  0  0  0  0  0  0
   -1.2860   -0.9830    0.3090 C   0  0  0  0  0  0  0  0  0  0  0  0
   -0.6170   -2.0670    0.6710 N   0  0  0  0  0  0  0  0  0  0  0  0
   -1.2440   -3.3100    1.1010 C   0  0  0  0  0  0  0  0  0  0  0  0
  1  2  2  0
  2  3  1  0
  2 16  1  0
  3  4  2  3
  3  8  1  0
  4  5  1  0
  5  6  2  3
  6  7  1  0
  8  9  2  0
  8 15  1  0
  9 10  1  0
 10 11  1  0
 10 13  2  0
 11 12  1  0
 13 14  1  0
 14 15  2  0
 15 16  1  0
 16 17  1  0
M  END
