
     RDKit          3D

 26 27  0  0  0  0  0  0  0  0999 V2000
    6.1570    0.7160    1.3130 C   0  0  0  0  0  0  0  0  0  0  0  0
    5.1690    0.6180    0.4810 C   0  0  0  0  0  0  0  0  0  0  0  0
    4.6430    1.7590   -0.1770 O   0  0  0  0  0  0  0  0  0  0  0  0
    4.3370    1.6670   -1.5480 C   0  0  0  0  0  0  0  0  0  0  0  0
    3.5450    0.4670   -1.9350 C   0  0  0  0  0  0  0  0  0  0  0  0
    3.4040   -0.4650   -0.8290 N   0  0  0  0  0  0  0  0  0  0  0  0
    2.2290   -1.2370   -0.6490 C   0  0  0  0  0  0  0  0  0  0  0  0
    1.0690   -0.2980   -0.2740 C   0  0  0  0  0  0  0  0  0  0  0  0
   -0.1660   -1.0530   -0.0710 C   0  0  0  0  0  0  0  0  0  0  0  0
   -0.1730   -2.3100   -0.1980 O   0  0  0  0  0  0  0  0  0  0  0  0
   -1.3860   -0.3870    0.2790 N   0  0  0  0  0  0  0  0  0  0  0  0
   -1.3430    1.0390    0.3790 C   0  0  0  0  0  0  0  0  0  0  0  0
   -1.7380    1.7660   -0.8620 C   0  0  0  0  0  0  0  0  0  0  0  0
   -1.7050    3.1330   -0.7570 O   0  0  0  0  0  0  0  0  0  0  0  0
   -0.4490    3.6030   -0.4480 C   0  0  0  0  0  0  0  0  0  0  0  0
   -2.5150   -1.1850    0.4700 C   0  0  0  0  0  0  0  0  0  0  0  0
   -2.2690   -2.4920    0.3530 O   0  0  0  0  0  0  0  0  0  0  0  0
   -3.8420   -0.8770    0.7580 N   0  0  0  0  0  0  0  0  0  0  0  0
   -4.7260   -2.0990    0.9190 C   0  0  0  0  0  0  0  0  0  0  0  0
   -6.1110   -1.6210    0.5700 C   0  0  0  0  0  0  0  0  0  0  0  0
   -5.9800   -0.7820   -0.6080 N   0  0  0  0  0  0  0  0  0  0  0  0
   -5.5700    0.5410   -0.1710 C   0  0  0  0  0  0  0  0  0  0  0  0
   -4.5040    0.3680    0.9130 C   0  0  0  0  0  0  0  0  0  0  0  0
    4.5010   -0.6230    0.1370 C   0  0  0  0  0  0  0  0  0  0  0  0
    4.7900   -1.7790    0.5990 C   0  0  0  0  0  0  0  0  0  0  0  0
    5.8020   -2.1960    1.5470 C   0  0  0  0  0  0  0  0  0  0  0  0
  1  2  2  0
  2  3  1  0
  2 24  1  0
  3  4  1  0
  4  5  1  0
  5  6  1  0
  6  7  1  0
  6 24  1  0
  7  8  1  0
  8  9  1  0
  9 10  2  0
  9 11  1  0
 11 12  1  0
 11 16  1  0
 12 13  1  0
 13 14  1  0
 14 15  1  0
 16 17  2  0
 16 18  1  0
 18 19  1  0
 18 23  1  0
 19 20  1  0
 20 21  1  0
 21 22  1  0
 22 23  1  0
 24 25  2  3
 25 26  1  0
M  CHG  1  21   1
M  END
