
     RDKit          3D

 26 28  0  0  0  0  0  0  0  0999 V2000
    5.0030   -1.6680   -2.2430 C   0  0  0  0  0  0  0  0  0  0  0  0
    4.1570   -1.1270   -1.2270 N   0  0  0  0  0  0  0  0  0  0  0  0
    2.9250   -1.6370   -0.7330 C   0  0  0  0  0  0  0  0  0  0  0  0
    2.4700   -2.7920   -0.9050 O   0  0  0  0  0  0  0  0  0  0  0  0
    2.2590   -0.6350    0.0010 N   0  0  0  0  0  0  0  0  0  0  0  0
    0.9930   -0.6540    0.6930 C   0  0  0  0  0  0  0  0  0  0  0  0
   -0.1390   -0.2560   -0.1320 C   0  0  0  0  0  0  0  0  0  0  0  0
    0.0240    0.0630   -1.3240 O   0  0  0  0  0  0  0  0  0  0  0  0
   -1.4440   -0.2290    0.4170 N   0  0  0  0  0  0  0  0  0  0  0  0
   -2.5920    0.1540   -0.3470 C   0  0  0  0  0  0  0  0  0  0  0  0
   -3.8780    0.0900    0.3810 C   0  0  2  0  0  0  0  0  0  0  0  0
   -4.3090   -1.1770    0.8570 N   0  0  1  0  0  0  0  0  0  0  0  0
   -5.2040   -1.7870   -0.1450 C   0  0  0  0  0  0  0  0  0  0  0  0
   -3.3300   -2.1630    1.1540 C   0  0  0  0  0  0  0  0  0  0  0  0
   -4.9700    0.6280   -0.5560 C   0  0  0  0  0  0  0  0  0  0  0  0
   -4.7040    2.0760   -0.9200 C   0  0  0  0  0  0  0  0  0  0  0  0
   -4.6010    2.8580    0.2030 O   0  0  0  0  0  0  0  0  0  0  0  0
   -3.6120    2.4370    1.0850 C   0  0  0  0  0  0  0  0  0  0  0  0
   -3.9250    1.0620    1.5600 C   0  0  0  0  0  0  0  0  0  0  0  0
    3.0930    0.5160   -0.0380 C   0  0  0  0  0  0  0  0  0  0  0  0
    2.7910    1.7160    0.2550 O   0  0  0  0  0  0  0  0  0  0  0  0
    4.4190    0.0870   -0.4900 C   0  0  2  0  0  0  0  0  0  0  0  0
    5.0330    1.1600   -1.3280 C   0  0  0  0  0  0  0  0  0  0  0  0
    5.9170    1.8770   -0.3280 C   0  0  0  0  0  0  0  0  0  0  0  0
    6.5320    0.7000    0.4190 C   0  0  0  0  0  0  0  0  0  0  0  0
    5.2900   -0.1330    0.7090 C   0  0  0  0  0  0  0  0  0  0  0  0
  1  2  1  0
  2  3  1  0
  2 22  1  0
  3  4  2  0
  3  5  1  0
  5  6  1  0
  5 20  1  0
  6  7  1  0
  7  8  2  0
  7  9  1  0
  9 10  1  0
 11 10  1  6
 11 12  1  0
 11 15  1  0
 11 19  1  0
 12 13  1  6
 12 14  1  0
 15 16  1  0
 16 17  1  0
 17 18  1  0
 18 19  1  0
 20 21  2  0
 20 22  1  0
 22 23  1  6
 22 26  1  0
 23 24  1  0
 24 25  1  0
 25 26  1  0
M  CHG  1  12   1
M  END
