
     RDKit          3D

 26 28  0  0  0  0  0  0  0  0999 V2000
    1.7530    1.7040    1.2270 C   0  0  0  0  0  0  0  0  0  0  0  0
    1.9110    0.3320    0.6920 C   0  0  0  0  0  0  0  0  0  0  0  0
    1.0600   -0.5000    0.0220 C   0  0  0  0  0  0  0  0  0  0  0  0
   -0.3100   -0.2230   -0.3660 C   0  0  0  0  0  0  0  0  0  0  0  0
   -0.9240   -1.2190   -0.9350 O   0  0  0  0  0  0  0  0  0  0  0  0
   -1.0060    0.9830   -0.1890 N   0  0  0  0  0  0  0  0  0  0  0  0
   -2.3850    1.0970   -0.6320 C   0  0  0  0  0  0  0  0  0  0  0  0
   -3.2990    0.1380    0.0550 C   0  0  0  0  0  0  0  0  0  0  0  0
   -4.6650    0.2770   -0.4260 N   0  0  0  0  0  0  0  0  0  0  0  0
   -5.5860    1.1760    0.1610 C   0  0  0  0  0  0  0  0  0  0  0  0
   -5.4260    1.5340    1.3630 O   0  0  0  0  0  0  0  0  0  0  0  0
   -6.7230    1.7030   -0.5960 C   0  0  0  0  0  0  0  0  0  0  0  0
   -6.8380    1.1680   -1.9830 C   0  0  0  0  0  0  0  0  0  0  0  0
   -6.3700   -0.2320   -2.1760 C   0  0  0  0  0  0  0  0  0  0  0  0
   -5.0810   -0.5270   -1.5100 C   0  0  0  0  0  0  0  0  0  0  0  0
   -4.3460   -1.4780   -1.8910 O   0  0  0  0  0  0  0  0  0  0  0  0
    1.7040   -1.6510   -0.2330 O   0  0  0  0  0  0  0  0  0  0  0  0
    2.9070   -1.6270    0.2200 C   0  0  0  0  0  0  0  0  0  0  0  0
    3.1110   -0.4150    0.8150 C   0  0  0  0  0  0  0  0  0  0  0  0
    4.3790   -0.0530    1.4440 C   0  0  0  0  0  0  0  0  0  0  0  0
    5.4970   -0.8440    1.0600 N   0  0  2  0  0  0  0  0  0  0  0  0
    6.6260    0.0250    0.8050 C   0  0  0  0  0  0  0  0  0  0  0  0
    7.6750   -0.2210    1.8160 C   0  0  0  0  0  0  0  0  0  0  0  0
    8.5240   -0.4050    2.6150 N   0  0  0  0  0  0  0  0  0  0  0  0
    5.2660   -1.7060   -0.0890 C   0  0  0  0  0  0  0  0  0  0  0  0
    4.0540   -2.6000    0.2250 C   0  0  0  0  0  0  0  0  0  0  0  0
  1  2  1  0
  2  3  2  0
  2 19  1  0
  3  4  1  0
  3 17  1  0
  4  5  2  0
  4  6  1  0
  6  7  1  0
  7  8  1  0
  8  9  1  0
  9 10  1  0
  9 15  1  0
 10 11  2  0
 10 12  1  0
 12 13  1  0
 13 14  1  0
 14 15  1  0
 15 16  2  0
 17 18  1  0
 18 19  2  0
 18 26  1  0
 19 20  1  0
 20 21  1  0
 21 22  1  6
 21 25  1  0
 22 23  1  0
 23 24  3  0
 25 26  1  0
M  CHG  1  21   1
M  END
