
     RDKit          3D

 26 28  0  0  0  0  0  0  0  0999 V2000
   -5.3950    2.5410   -1.7200 C   0  0  0  0  0  0  0  0  0  0  0  0
   -5.1740    2.4820   -0.2230 C   0  0  0  0  0  0  0  0  0  0  0  0
   -4.4410    1.3310    0.1320 O   0  0  0  0  0  0  0  0  0  0  0  0
   -4.9100    0.0650   -0.1450 C   0  0  0  0  0  0  0  0  0  0  0  0
   -6.0140   -0.0330   -0.7250 O   0  0  0  0  0  0  0  0  0  0  0  0
   -4.1150   -1.0980    0.2420 C   0  0  0  0  0  0  0  0  0  0  0  0
   -4.4470   -2.4010    0.0360 N   0  0  0  0  0  0  0  0  0  0  0  0
   -3.4890   -3.1710    0.5180 N   0  0  0  0  0  0  0  0  0  0  0  0
   -3.4540   -4.6380    0.5000 C   0  0  0  0  0  0  0  0  0  0  0  0
   -2.5320   -2.3690    1.0390 C   0  0  0  0  0  0  0  0  0  0  0  0
   -2.8950   -1.0500    0.8820 C   0  0  0  0  0  0  0  0  0  0  0  0
   -2.1060    0.0930    1.3230 C   0  0  0  0  0  0  0  0  0  0  0  0
   -2.3490    0.4910    2.5070 O   0  0  0  0  0  0  0  0  0  0  0  0
   -1.1380    0.7280    0.5140 N   0  0  0  0  0  0  0  0  0  0  0  0
   -0.8210    0.3200   -0.8350 C   0  0  0  0  0  0  0  0  0  0  0  0
    0.6840    0.4700   -1.0030 C   0  0  0  0  0  0  0  0  0  0  0  0
    1.3690    0.2440    0.3100 C   0  0  1  0  0  0  0  0  0  0  0  0
    2.8550    0.2180    0.1820 C   0  0  0  0  0  0  0  0  0  0  0  0
    3.3770   -0.7960   -0.6760 N   0  0  0  0  0  0  0  0  0  0  0  0
    4.5110   -0.3310   -1.4640 C   0  0  1  0  0  0  0  0  0  0  0  0
    5.1980    0.8450   -0.7690 C   0  0  0  0  0  0  0  0  0  0  0  0
    6.6300    0.6360   -1.1180 C   0  0  0  0  0  0  0  0  0  0  0  0
    6.7930   -0.6100   -1.6550 O   0  0  0  0  0  0  0  0  0  0  0  0
    5.6420   -1.3380   -1.4720 C   0  0  0  0  0  0  0  0  0  0  0  0
    1.0240    1.4120    1.2430 C   0  0  0  0  0  0  0  0  0  0  0  0
   -0.4110    1.8570    1.0540 C   0  0  0  0  0  0  0  0  0  0  0  0
  1  2  1  0
  2  3  1  0
  3  4  1  0
  4  5  2  0
  4  6  1  0
  6  7  2  0
  6 11  1  0
  7  8  1  0
  8  9  1  0
  8 10  1  0
 10 11  2  0
 11 12  1  0
 12 13  2  0
 12 14  1  0
 14 15  1  0
 14 26  1  0
 15 16  1  0
 16 17  1  0
 17 18  1  6
 17 25  1  0
 18 19  1  0
 20 19  1  1
 20 21  1  0
 20 24  1  0
 21 22  1  0
 22 23  1  0
 23 24  1  0
 25 26  1  0
M  CHG  1  19   1
M  END
