
     RDKit          3D

 21 21  0  0  0  0  0  0  0  0999 V2000
   -1.5120   -0.1630    0.8630 O   0  0  0  0  0  0  0  0  0  0  0  0
   -1.1970   -0.7360   -0.1730 C   0  0  0  0  0  0  0  0  0  0  0  0
   -2.1690   -1.1710   -1.1310 N   0  0  0  0  0  0  0  0  0  0  0  0
   -3.5390   -0.9070   -1.0070 C   0  0  0  0  0  0  0  0  0  0  0  0
   -4.0930   -1.3560    0.3550 C   0  0  0  0  0  0  0  0  0  0  0  0
   -5.4300   -1.0040    0.2420 O   0  0  0  0  0  0  0  0  0  0  0  0
   -5.4490    0.7050    0.4670 P   0  0  0  0  0  0  0  0  0  0  0  0
   -6.1510    1.4950   -0.9130 O   0  0  0  0  0  0  0  0  0  0  0  0
   -5.7690    1.3450    1.9550 O   0  0  0  0  0  0  0  0  0  0  0  0
    0.1790   -1.0220   -0.5130 N   0  0  0  0  0  0  0  0  0  0  0  0
    1.2040   -0.7460    0.4600 C   0  0  2  0  0  0  0  0  0  0  0  0
    1.3830    0.8010    0.5540 C   0  0  0  0  0  0  0  0  0  0  0  0
    1.8430    1.2030   -0.6710 O   0  0  0  0  0  0  0  0  0  0  0  0
    3.0860    1.8390   -0.5760 C   0  0  0  0  0  0  0  0  0  0  0  0
    4.1920    0.8230   -0.2520 C   0  0  1  0  0  0  0  0  0  0  0  0
    4.7760    0.4280   -1.4270 O   0  0  0  0  0  0  0  0  0  0  0  0
    5.1590    1.3850    0.5580 O   0  0  0  0  0  0  0  0  0  0  0  0
    6.1390    0.5800    0.8410 O   0  0  0  0  0  0  0  0  0  0  0  0
    3.6400   -0.3560    0.4360 C   0  0  0  0  0  0  0  0  0  0  0  0
    4.0820   -0.7040    1.5080 O   0  0  0  0  0  0  0  0  0  0  0  0
    2.5250   -1.2440   -0.0460 C   0  0  0  0  0  0  0  0  0  0  0  0
  1  2  2  0
  2  3  1  0
  2 10  1  0
  3  4  1  0
  4  5  1  0
  5  6  1  0
  6  7  1  0
  7  8  1  0
  7  9  1  0
 11 10  1  6
 11 12  1  0
 11 21  1  0
 12 13  1  0
 13 14  1  0
 14 15  1  0
 15 16  1  6
 15 17  1  0
 15 19  1  0
 17 18  1  0
 19 20  2  0
 19 21  1  0
M  END
