
     RDKit          3D

 20 21  0  0  0  0  0  0  0  0999 V2000
   -3.0400    1.4330    1.2640 N   0  0  0  0  0  0  0  0  0  0  0  0
   -2.4530    0.3180    0.5150 C   0  0  2  0  0  0  0  0  0  0  0  0
   -1.3440    0.8050   -0.3220 C   0  0  0  0  0  0  0  0  0  0  0  0
   -0.0900    0.4790   -0.4170 C   0  0  0  0  0  0  0  0  0  0  0  0
    0.6300   -0.5410    0.3400 C   0  0  0  0  0  0  0  0  0  0  0  0
    0.0840   -1.2360    1.2020 O   0  0  0  0  0  0  0  0  0  0  0  0
    2.0230   -0.7940    0.1210 N   0  0  0  0  0  0  0  0  0  0  0  0
    2.7400   -1.8130    0.8790 C   0  0  0  0  0  0  0  0  0  0  0  0
    4.0510   -1.7890    0.4170 O   0  0  0  0  0  0  0  0  0  0  0  0
    4.7910   -0.2640    0.6530 P   0  0  0  0  0  0  0  0  0  0  0  0
    3.6900    1.0020    0.9950 O   0  0  0  0  0  0  0  0  0  0  0  0
    5.9490    0.1320   -0.5530 O   0  0  0  0  0  0  0  0  0  0  0  0
    0.5900    1.3170   -1.4620 C   0  0  0  0  0  0  0  0  0  0  0  0
   -0.3670    2.1770   -1.9210 O   0  0  0  0  0  0  0  0  0  0  0  0
   -1.5520    1.9120   -1.2940 C   0  0  0  0  0  0  0  0  0  0  0  0
   -2.6550    2.5120   -1.5040 O   0  0  0  0  0  0  0  0  0  0  0  0
   -3.5580   -0.1210   -0.4750 C   0  0  0  0  0  0  0  0  0  0  0  0
   -4.1560   -1.2120    0.1260 O   0  0  0  0  0  0  0  0  0  0  0  0
   -3.1240   -1.7890    0.8290 C   0  0  0  0  0  0  0  0  0  0  0  0
   -2.2730   -0.7870    1.2570 O   0  0  0  0  0  0  0  0  0  0  0  0
  2  1  1  1
  2  3  1  0
  2 17  1  0
  2 20  1  0
  3  4  2  0
  3 15  1  0
  4  5  1  0
  4 13  1  0
  5  6  2  0
  5  7  1  0
  7  8  1  0
  8  9  1  0
  9 10  1  0
 10 11  1  0
 10 12  1  0
 13 14  1  0
 14 15  1  0
 15 16  2  0
 17 18  1  0
 18 19  1  0
 19 20  1  0
M  END
