
     RDKit          3D

 20 20  0  0  0  0  0  0  0  0999 V2000
    6.3660    0.8820   -0.0110 C   0  0  0  0  0  0  0  0  0  0  0  0
    4.9900    1.1210   -0.1350 O   0  0  0  0  0  0  0  0  0  0  0  0
    4.0890    0.1020    0.0980 C   0  0  0  0  0  0  0  0  0  0  0  0
    4.5160   -1.0270    0.4180 O   0  0  0  0  0  0  0  0  0  0  0  0
    2.7440    0.3320   -0.0220 O   0  0  0  0  0  0  0  0  0  0  0  0
    1.7740   -0.6450    0.1970 C   0  0  0  0  0  0  0  0  0  0  0  0
    2.2240   -1.7770    0.5180 O   0  0  0  0  0  0  0  0  0  0  0  0
    0.3900   -0.3680    0.0630 N   0  0  0  0  0  0  0  0  0  0  0  0
   -0.1250    0.9590   -0.3060 C   0  0  0  0  0  0  0  0  0  0  0  0
   -1.5950    0.8730    0.1480 C   0  0  1  0  0  0  0  0  0  0  0  0
   -2.6360    2.1360   -0.6730 P   0  0  0  0  0  0  0  0  0  0  0  0
   -4.0270    2.4310    0.3590 O   0  0  0  0  0  0  0  0  0  0  0  0
   -1.7340    3.6430   -0.6840 O   0  0  0  0  0  0  0  0  0  0  0  0
   -1.8720   -0.5330   -0.3380 C   0  0  2  0  0  0  0  0  0  0  0  0
   -3.2070   -1.0430    0.1320 C   0  0  0  0  0  0  0  0  0  0  0  0
   -4.2210   -0.1280   -0.4050 N   0  0  0  0  0  0  0  0  0  0  0  0
   -0.7100   -1.2740    0.2560 C   0  0  1  0  0  0  0  0  0  0  0  0
   -0.5210   -2.6080   -0.3490 C   0  0  0  0  0  0  0  0  0  0  0  0
   -1.4450   -3.4430   -0.1740 O   0  0  0  0  0  0  0  0  0  0  0  0
    0.5730   -3.0120   -1.0840 O   0  0  0  0  0  0  0  0  0  0  0  0
  1  2  1  0
  2  3  1  0
  3  4  2  0
  3  5  1  0
  5  6  1  0
  6  7  2  0
  6  8  1  0
  8  9  1  0
  8 17  1  0
  9 10  1  0
 10 11  1  6
 10 14  1  0
 11 12  1  0
 11 13  1  0
 14 15  1  1
 14 17  1  0
 15 16  1  0
 17 18  1  6
 18 19  2  0
 18 20  1  0
M  END
