
     RDKit          3D

 20 21  0  0  0  0  0  0  0  0999 V2000
   -5.2100   -1.8160    1.7370 O   0  0  0  0  0  0  0  0  0  0  0  0
   -4.6420   -1.0850    0.9000 C   0  0  0  0  0  0  0  0  0  0  0  0
   -3.2120   -1.1570    0.5190 C   0  0  0  0  0  0  0  0  0  0  0  0
   -2.9930    0.2220   -0.0370 C   0  0  2  0  0  0  0  0  0  0  0  0
   -4.2770    0.4950   -0.7330 C   0  0  0  0  0  0  0  0  0  0  0  0
   -5.2400   -0.0730    0.1710 O   0  0  0  0  0  0  0  0  0  0  0  0
   -1.8710    0.3080   -0.8500 O   0  0  0  0  0  0  0  0  0  0  0  0
   -0.8470    0.3910    0.0670 C   0  0  1  0  0  0  0  0  0  0  0  0
    0.4610    0.7310   -0.5300 C   0  0  0  0  0  0  0  0  0  0  0  0
    0.9870    1.8120   -0.1740 O   0  0  0  0  0  0  0  0  0  0  0  0
    1.1130   -0.1050   -1.4620 N   0  0  0  0  0  0  0  0  0  0  0  0
    2.3900    0.2500   -2.0250 C   0  0  0  0  0  0  0  0  0  0  0  0
    3.4510    0.3880   -0.9580 C   0  0  0  0  0  0  0  0  0  0  0  0
    3.5460   -0.8460   -0.3180 O   0  0  0  0  0  0  0  0  0  0  0  0
    4.7220   -0.8520    0.9340 P   0  0  0  0  0  0  0  0  0  0  0  0
    6.0970    0.1050    0.5840 O   0  0  0  0  0  0  0  0  0  0  0  0
    5.1310   -2.4520    1.3950 O   0  0  0  0  0  0  0  0  0  0  0  0
   -1.3030    1.4090    0.9910 N   0  0  0  0  0  0  0  0  0  0  0  0
   -2.7360    1.2350    1.0220 C   0  0  0  0  0  0  0  0  0  0  0  0
   -3.5570    1.8040    1.7650 O   0  0  0  0  0  0  0  0  0  0  0  0
  1  2  2  0
  2  3  1  0
  2  6  1  0
  4  3  1  1
  4  5  1  0
  4  7  1  0
  4 19  1  0
  5  6  1  0
  7  8  1  0
  8  9  1  6
  8 18  1  0
  9 10  2  0
  9 11  1  0
 11 12  1  0
 12 13  1  0
 13 14  1  0
 14 15  1  0
 15 16  1  0
 15 17  1  0
 18 19  1  0
 19 20  2  0
M  END
