
     RDKit          3D

 21 22  0  0  0  0  0  0  0  0999 V2000
    1.2160    0.0480   -1.2730 O   0  0  0  0  0  0  0  0  0  0  0  0
    0.6780   -0.5230   -0.2770 C   0  0  0  0  0  0  0  0  0  0  0  0
    1.3770   -1.5290    0.3180 O   0  0  0  0  0  0  0  0  0  0  0  0
    2.6340   -2.0350   -0.0150 C   0  0  0  0  0  0  0  0  0  0  0  0
    3.6580   -0.9390    0.1220 C   0  0  0  0  0  0  0  0  0  0  0  0
    4.9400   -1.3900   -0.1990 O   0  0  0  0  0  0  0  0  0  0  0  0
    6.0270   -0.0550   -0.0070 P   0  0  0  0  0  0  0  0  0  0  0  0
    6.5590    0.5160   -1.5480 O   0  0  0  0  0  0  0  0  0  0  0  0
    5.2710    1.2080    0.9230 O   0  0  0  0  0  0  0  0  0  0  0  0
   -0.6030   -0.1330    0.2050 N   0  0  0  0  0  0  0  0  0  0  0  0
   -1.1630   -0.8170    1.3390 C   0  0  0  0  0  0  0  0  0  0  0  0
   -2.6010   -1.2290    1.1460 C   0  0  0  0  0  0  0  0  0  0  0  0
   -3.2490   -0.4510    0.0400 C   0  0  1  0  0  0  0  0  0  0  0  0
   -4.6230   -0.4550    0.0710 O   0  0  0  0  0  0  0  0  0  0  0  0
   -5.0770    0.0200   -1.0610 O   0  0  0  0  0  0  0  0  0  0  0  0
   -4.8390    1.3640   -1.0940 N   0  0  0  0  0  0  0  0  0  0  0  0
   -3.6190    1.8840   -0.5950 C   0  0  0  0  0  0  0  0  0  0  0  0
   -3.3500    3.0860   -0.7880 O   0  0  0  0  0  0  0  0  0  0  0  0
   -2.7070    0.9810    0.1360 C   0  0  1  0  0  0  0  0  0  0  0  0
   -2.6970    1.3700    1.4730 O   0  0  0  0  0  0  0  0  0  0  0  0
   -1.3160    0.9370   -0.4480 C   0  0  0  0  0  0  0  0  0  0  0  0
  1  2  2  0
  2  3  1  0
  2 10  1  0
  3  4  1  0
  4  5  1  0
  5  6  1  0
  6  7  1  0
  7  8  1  0
  7  9  1  0
 10 11  1  0
 10 21  1  0
 11 12  1  0
 13 12  1  1
 13 14  1  0
 13 19  1  0
 14 15  1  0
 15 16  1  0
 16 17  1  0
 17 18  2  0
 17 19  1  0
 19 20  1  1
 19 21  1  0
M  END
