
     RDKit          3D

 13 14  0  0  0  0  0  0  0  0999 V2000
    3.4530    1.1130    0.2940 N   0  0  0  0  0  0  0  0  0  0  0  0
    2.6950   -0.0430    0.5040 C   0  0  0  0  0  0  0  0  0  0  0  0
    3.3200   -1.1040    0.7500 O   0  0  0  0  0  0  0  0  0  0  0  0
    1.2150   -0.0990    0.4560 C   0  0  1  0  0  0  0  0  0  0  0  0
    0.6560    0.4800   -0.8080 C   0  0  0  0  0  0  0  0  0  0  0  0
   -0.7150    0.0590   -1.1660 C   0  0  2  0  0  0  0  0  0  0  0  0
   -1.5320    1.1940   -1.2850 O   0  0  0  0  0  0  0  0  0  0  0  0
   -2.5680    1.0970   -0.4060 C   0  0  0  0  0  0  0  0  0  0  0  0
   -2.2970   -0.0120    0.5620 C   0  0  0  0  0  0  0  0  0  0  0  0
   -1.3940   -0.9050   -0.2920 C   0  0  2  0  0  0  0  0  0  0  0  0
   -0.5800   -1.7330    0.5730 C   0  0  0  0  0  0  0  0  0  0  0  0
   -1.1130   -2.6990    1.1790 O   0  0  0  0  0  0  0  0  0  0  0  0
    0.8010   -1.4400    0.7180 N   0  0  0  0  0  0  0  0  0  0  0  0
  1  2  1  0
  2  3  2  0
  4  2  1  6
  4  5  1  0
  4 13  1  0
  6  5  1  1
  6  7  1  0
  6 10  1  0
  7  8  1  0
  8  9  1  0
 10  9  1  1
 10 11  1  0
 11 12  2  0
 11 13  1  0
M  END
