
     RDKit          3D

 13 13  0  0  0  0  0  0  0  0999 V2000
   -2.3120    0.7070    1.5720 N   0  0  0  0  0  0  0  0  0  0  0  0
   -1.3540   -0.2230    1.0120 C   0  0  1  0  0  0  0  0  0  0  0  0
   -1.9780   -0.9900   -0.1290 C   0  0  0  0  0  0  0  0  0  0  0  0
   -0.9460   -1.9000   -0.7570 C   0  0  0  0  0  0  0  0  0  0  0  0
    0.4430   -1.6300   -0.2010 C   0  0  0  0  0  0  0  0  0  0  0  0
    0.7080   -0.1550   -0.2150 C   0  0  0  0  0  0  0  0  0  0  0  0
    1.8040    0.4870   -0.7880 N   0  0  0  0  0  0  0  0  0  0  0  0
    2.8540   -0.1530   -1.4750 C   0  0  0  0  0  0  0  0  0  0  0  0
    2.8860   -1.3720   -1.6270 O   0  0  0  0  0  0  0  0  0  0  0  0
    3.9260    0.5810   -2.0260 O   0  0  0  0  0  0  0  0  0  0  0  0
   -0.2160    0.5730    0.4070 C   0  0  0  0  0  0  0  0  0  0  0  0
   -0.1680    2.0200    0.4980 C   0  0  0  0  0  0  0  0  0  0  0  0
   -0.1170    2.4830    1.8220 O   0  0  0  0  0  0  0  0  0  0  0  0
  2  1  1  6
  2  3  1  0
  2 11  1  0
  3  4  1  0
  4  5  1  0
  5  6  1  0
  6  7  1  0
  6 11  2  0
  7  8  1  0
  8  9  2  0
  8 10  1  0
 11 12  1  0
 12 13  1  0
M  END
