
     RDKit          3D

 13 13  0  0  0  0  0  0  0  0999 V2000
   -0.4080   -2.0620   -1.4410 C   0  0  0  0  0  0  0  0  0  0  0  0
   -0.0110   -0.9240   -0.6170 C   0  0  0  0  0  0  0  0  0  0  0  0
   -0.8180   -0.2340    0.1690 C   0  0  0  0  0  0  0  0  0  0  0  0
   -2.2420   -0.6150    0.2450 C   0  0  0  0  0  0  0  0  0  0  0  0
   -2.6000   -0.9640    1.5570 O   0  0  0  0  0  0  0  0  0  0  0  0
   -0.2770    0.8890    0.9430 C   0  0  2  0  0  0  0  0  0  0  0  0
   -0.1670    2.1510    0.1430 C   0  0  0  0  0  0  0  0  0  0  0  0
   -1.3130    2.6600   -0.5390 N   0  0  0  0  0  0  0  0  0  0  0  0
    0.9340    2.7460    0.0810 O   0  0  0  0  0  0  0  0  0  0  0  0
    0.9260    0.5730    1.5120 O   0  0  0  0  0  0  0  0  0  0  0  0
    1.8060   -0.1500    0.7730 C   0  0  2  0  0  0  0  0  0  0  0  0
    3.1100    0.5020    0.7860 N   0  0  0  0  0  0  0  0  0  0  0  0
    1.4080   -0.4640   -0.6280 C   0  0  0  0  0  0  0  0  0  0  0  0
  1  2  1  0
  2  3  2  0
  2 13  1  0
  3  4  1  0
  3  6  1  0
  4  5  1  0
  6  7  1  6
  6 10  1  0
  7  8  1  0
  7  9  2  0
 10 11  1  0
 11 12  1  6
 11 13  1  0
M  END
