
     RDKit          3D

 13 14  0  0  0  0  0  0  0  0999 V2000
    3.8360    0.3200    0.4200 N   0  0  0  0  0  0  0  0  0  0  0  0
    2.7910   -0.6330    0.4550 C   0  0  0  0  0  0  0  0  0  0  0  0
    3.0350   -1.8280    0.7060 O   0  0  0  0  0  0  0  0  0  0  0  0
    1.4110   -0.1860    0.1900 C   0  0  0  0  0  0  0  0  0  0  0  0
    0.4320   -1.0720    0.2210 C   0  0  0  0  0  0  0  0  0  0  0  0
    0.6810   -2.4270    0.5020 O   0  0  0  0  0  0  0  0  0  0  0  0
   -0.9200   -0.6080   -0.0420 C   0  0  0  0  0  0  0  0  0  0  0  0
   -2.1200   -1.1380   -0.1100 C   0  0  0  0  0  0  0  0  0  0  0  0
   -3.0900   -0.1450   -0.4150 N   0  0  0  0  0  0  0  0  0  0  0  0
   -2.4720    1.0540    0.1820 C   0  0  0  0  0  0  0  0  0  0  0  0
   -1.0540    0.8710   -0.3140 C   0  0  1  0  0  0  0  0  0  0  0  0
   -0.1070    1.5690    0.4340 O   0  0  0  0  0  0  0  0  0  0  0  0
    1.1280    1.2350   -0.1130 C   0  0  0  0  0  0  0  0  0  0  0  0
  1  2  1  0
  2  3  2  0
  2  4  1  0
  4  5  2  0
  4 13  1  0
  5  6  1  0
  5  7  1  0
  7  8  2  0
  7 11  1  0
  8  9  1  0
  9 10  1  0
 11 10  1  1
 11 12  1  0
 12 13  1  0
M  CHG  1   9   1
M  END
