
     RDKit          3D

 13 13  0  0  0  0  0  0  0  0999 V2000
   -3.6670    1.0900    1.1970 N   0  0  0  0  0  0  0  0  0  0  0  0
   -2.9560   -0.0850    0.8270 C   0  0  0  0  0  0  0  0  0  0  0  0
   -3.0140   -1.0960    1.5630 O   0  0  0  0  0  0  0  0  0  0  0  0
   -2.1680   -0.0530   -0.4340 C   0  0  1  0  0  0  0  0  0  0  0  0
   -1.1070    1.0070   -0.3470 C   0  0  0  0  0  0  0  0  0  0  0  0
    0.1750    0.2520   -0.6440 C   0  0  1  0  0  0  0  0  0  0  0  0
    0.9690    1.0710   -1.4430 O   0  0  0  0  0  0  0  0  0  0  0  0
    0.8250   -0.0460    0.6600 C   0  0  0  0  0  0  0  0  0  0  0  0
    2.1090   -0.7930    0.6100 C   0  0  0  0  0  0  0  0  0  0  0  0
    3.2180   -0.1360   -0.1410 C   0  0  0  0  0  0  0  0  0  0  0  0
    4.3490   -0.9700   -0.0810 O   0  0  0  0  0  0  0  0  0  0  0  0
   -0.3230   -0.9430   -1.3880 C   0  0  0  0  0  0  0  0  0  0  0  0
   -1.5050   -1.3130   -0.6740 N   0  0  0  0  0  0  0  0  0  0  0  0
  1  2  1  0
  2  3  2  0
  4  2  1  1
  4  5  1  0
  4 13  1  0
  5  6  1  0
  6  7  1  6
  6  8  1  0
  6 12  1  0
  8  9  1  0
  9 10  1  0
 10 11  1  0
 12 13  1  0
M  END
