
     RDKit          3D

 13 14  0  0  0  0  0  0  0  0999 V2000
    3.3830    0.4230    0.5630 N   0  0  0  0  0  0  0  0  0  0  0  0
    2.4070    0.0900   -0.4540 C   0  0  0  0  0  0  0  0  0  0  0  0
    1.0700   -0.2260    0.1830 C   0  0  2  0  0  0  0  0  0  0  0  0
    1.2380   -1.3260    1.0570 O   0  0  0  0  0  0  0  0  0  0  0  0
    0.0680   -0.6980   -0.8560 C   0  0  0  0  0  0  0  0  0  0  0  0
   -1.2390   -0.6920   -0.1610 C   0  0  2  0  0  0  0  0  0  0  0  0
   -2.4070   -1.2340   -0.8640 C   0  0  0  0  0  0  0  0  0  0  0  0
   -3.4810   -0.6180   -0.2170 O   0  0  0  0  0  0  0  0  0  0  0  0
   -3.0790    0.6620    0.1670 C   0  0  0  0  0  0  0  0  0  0  0  0
   -1.6340    0.7970   -0.0850 C   0  0  1  0  0  0  0  0  0  0  0  0
   -0.8250    1.3270    0.9580 N   0  0  0  0  0  0  0  0  0  0  0  0
    0.5560    0.9020    0.9620 C   0  0  0  0  0  0  0  0  0  0  0  0
    1.3780    1.5450    1.6860 O   0  0  0  0  0  0  0  0  0  0  0  0
  1  2  1  0
  2  3  1  0
  3  4  1  1
  3  5  1  0
  3 12  1  0
  6  5  1  6
  6  7  1  0
  6 10  1  0
  7  8  1  0
  8  9  1  0
 10  9  1  1
 10 11  1  0
 11 12  1  0
 12 13  2  0
M  CHG  1   1   1
M  END
