
     RDKit          3D

 12 13  0  0  0  0  0  0  0  0999 V2000
    3.1460   -0.2150    0.1180 N   0  0  0  0  0  0  0  0  0  0  0  0
    1.7690   -0.2350   -0.2810 C   0  0  1  0  0  0  0  0  0  0  0  0
    1.1210   -1.5890   -0.1170 C   0  0  0  0  0  0  0  0  0  0  0  0
   -0.2450   -1.5060   -0.8110 C   0  0  0  0  0  0  0  0  0  0  0  0
   -1.0590   -0.4960   -0.0250 C   0  0  2  0  0  0  0  0  0  0  0  0
   -2.3830   -0.4640   -0.3890 O   0  0  0  0  0  0  0  0  0  0  0  0
   -3.1110    0.1890    0.5830 C   0  0  0  0  0  0  0  0  0  0  0  0
   -2.4500    1.4670    0.9830 C   0  0  0  0  0  0  0  0  0  0  0  0
   -2.9740    2.1820    1.8660 O   0  0  0  0  0  0  0  0  0  0  0  0
   -1.2330    1.8910    0.3830 N   0  0  0  0  0  0  0  0  0  0  0  0
   -0.4120    0.8540   -0.2420 C   0  0  1  0  0  0  0  0  0  0  0  0
    0.9470    0.7970    0.4460 C   0  0  0  0  0  0  0  0  0  0  0  0
  2  1  1  1
  2  3  1  0
  2 12  1  0
  3  4  1  0
  5  4  1  6
  5  6  1  0
  5 11  1  0
  6  7  1  0
  7  8  1  0
  8  9  2  0
  8 10  1  0
 10 11  1  0
 11 12  1  1
M  CHG  1   1   1
M  END
