
     RDKit          3D

 16 17  0  0  0  0  0  0  0  0999 V2000
    1.1090   -2.2060   -0.8840 O   0  0  0  0  0  0  0  0  0  0  0  0
    1.2860   -1.0620   -0.4010 C   0  0  0  0  0  0  0  0  0  0  0  0
    2.5960   -0.6640   -0.1700 C   0  0  0  0  0  0  0  0  0  0  0  0
    3.5730   -1.6570   -0.3030 O   0  0  0  0  0  0  0  0  0  0  0  0
    3.1070    0.5700    0.1740 C   0  0  0  0  0  0  0  0  0  0  0  0
    2.3840    1.7630    0.1990 C   0  0  0  0  0  0  0  0  0  0  0  0
    1.0250    1.9690    0.1260 C   0  0  0  0  0  0  0  0  0  0  0  0
    0.0290    0.9970    0.0640 C   0  0  0  0  0  0  0  0  0  0  0  0
   -1.2210    1.5200    0.2750 C   0  0  0  0  0  0  0  0  0  0  0  0
   -2.3700    0.7120    0.2570 C   0  0  0  0  0  0  0  0  0  0  0  0
   -3.5890    1.3440    0.4820 O   0  0  0  0  0  0  0  0  0  0  0  0
   -2.2510   -0.6300    0.0230 C   0  0  0  0  0  0  0  0  0  0  0  0
   -3.3660   -1.4620   -0.0030 O   0  0  0  0  0  0  0  0  0  0  0  0
   -0.9910   -1.1800   -0.1930 C   0  0  0  0  0  0  0  0  0  0  0  0
   -0.8850   -2.5430   -0.4290 O   0  0  0  0  0  0  0  0  0  0  0  0
    0.1020   -0.3540   -0.1660 C   0  0  0  0  0  0  0  0  0  0  0  0
  1  2  2  0
  2  3  1  0
  2 16  1  0
  3  4  1  0
  3  5  2  0
  5  6  1  0
  6  7  2  0
  7  8  1  0
  8  9  2  0
  8 16  1  0
  9 10  1  0
 10 11  1  0
 10 12  2  0
 12 13  1  0
 12 14  1  0
 14 15  1  0
 14 16  2  0
M  END
