
     RDKit          3D

 27 29  0  0  0  0  0  0  0  0999 V2000
    6.7400    0.2190    2.5260 C   0  0  0  0  0  0  0  0  0  0  0  0
    6.3840   -0.1580    1.1180 C   0  0  0  0  0  0  0  0  0  0  0  0
    5.0530    0.2290    0.7980 O   0  0  0  0  0  0  0  0  0  0  0  0
    4.5350   -0.0310   -0.4590 C   0  0  0  0  0  0  0  0  0  0  0  0
    5.2710   -0.6610   -1.4330 C   0  0  0  0  0  0  0  0  0  0  0  0
    4.7090   -0.8980   -2.6730 C   0  0  0  0  0  0  0  0  0  0  0  0
    3.3980   -0.4980   -2.9310 C   0  0  0  0  0  0  0  0  0  0  0  0
    2.8860   -0.7610   -4.1930 O   0  0  0  0  0  0  0  0  0  0  0  0
    2.6880    0.1270   -1.9450 C   0  0  0  0  0  0  0  0  0  0  0  0
    1.2630    0.5490   -2.2570 C   0  0  0  0  0  0  0  0  0  0  0  0
    0.3840   -0.6320   -2.2330 C   0  0  0  0  0  0  0  0  0  0  0  0
   -0.7670   -0.8610   -1.6980 C   0  0  0  0  0  0  0  0  0  0  0  0
   -1.6620   -0.0520   -0.9200 C   0  0  0  0  0  0  0  0  0  0  0  0
   -1.6220    1.3120   -0.9730 C   0  0  0  0  0  0  0  0  0  0  0  0
   -2.4170    2.0960   -0.1820 C   0  0  0  0  0  0  0  0  0  0  0  0
   -2.3260    3.5780   -0.2770 C   0  0  0  0  0  0  0  0  0  0  0  0
   -3.3270    1.5210    0.7330 C   0  0  0  0  0  0  0  0  0  0  0  0
   -4.1700    2.3830    1.5570 C   0  0  0  0  0  0  0  0  0  0  0  0
   -3.3850    0.1510    0.8020 C   0  0  0  0  0  0  0  0  0  0  0  0
   -4.2560   -0.4480    1.6920 C   0  0  0  0  0  0  0  0  0  0  0  0
   -5.1270    0.3220    2.5660 C   0  0  0  0  0  0  0  0  0  0  0  0
   -4.2600   -1.8540    1.7210 C   0  0  0  0  0  0  0  0  0  0  0  0
   -3.4760   -2.6290    0.9440 C   0  0  0  0  0  0  0  0  0  0  0  0
   -3.5260   -4.1140    1.0220 C   0  0  0  0  0  0  0  0  0  0  0  0
   -2.6180   -2.0210    0.0690 C   0  0  0  0  0  0  0  0  0  0  0  0
   -2.5580   -0.6540   -0.0180 C   0  0  0  0  0  0  0  0  0  0  0  0
    3.2220    0.3730   -0.7110 C   0  0  0  0  0  0  0  0  0  0  0  0
  1  2  1  0
  2  3  1  0
  3  4  1  0
  4  5  2  0
  4 27  1  0
  5  6  1  0
  6  7  2  0
  7  8  1  0
  7  9  1  0
  9 10  1  0
  9 27  2  0
 10 11  1  0
 11 12  2  3
 12 13  1  0
 13 14  2  0
 13 26  1  0
 14 15  1  0
 15 16  1  0
 15 17  2  0
 17 18  1  0
 17 19  1  0
 19 20  2  0
 19 26  1  0
 20 21  1  0
 20 22  1  0
 22 23  2  0
 23 24  1  0
 23 25  1  0
 25 26  2  0
M  END
