
     RDKit          3D

 27 29  0  0  0  0  0  0  0  0999 V2000
   -0.5430    0.6920   -1.6850 C   0  0  0  0  0  0  0  0  0  0  0  0
   -1.2860   -0.2790   -1.4660 C   0  0  0  0  0  0  0  0  0  0  0  0
   -2.3040   -0.7310   -0.5140 C   0  0  0  0  0  0  0  0  0  0  0  0
   -2.7740   -1.9260   -0.9460 C   0  0  0  0  0  0  0  0  0  0  0  0
   -3.7410   -2.8690   -0.4530 C   0  0  0  0  0  0  0  0  0  0  0  0
   -3.0520    0.0760    0.4270 C   0  0  0  0  0  0  0  0  0  0  0  0
   -2.4970    1.0220    1.1300 C   0  0  0  0  0  0  0  0  0  0  0  0
   -1.0980    1.4380    1.1500 C   0  0  0  0  0  0  0  0  0  0  0  0
   -0.7580    2.7710    1.0630 C   0  0  0  0  0  0  0  0  0  0  0  0
    0.5550    3.2050    1.2030 C   0  0  0  0  0  0  0  0  0  0  0  0
    1.5460    2.2820    1.4340 C   0  0  0  0  0  0  0  0  0  0  0  0
    1.2340    0.9230    1.5280 C   0  0  0  0  0  0  0  0  0  0  0  0
    2.3600    0.0220    1.8070 C   0  0  0  0  0  0  0  0  0  0  0  0
    3.1230   -0.4200    0.6220 C   0  0  0  0  0  0  0  0  0  0  0  0
    4.2730    0.2920    0.2880 C   0  0  0  0  0  0  0  0  0  0  0  0
    4.9740   -0.0750   -0.8280 C   0  0  0  0  0  0  0  0  0  0  0  0
    6.1990    0.7030   -1.1660 C   0  0  0  0  0  0  0  0  0  0  0  0
    4.5620   -1.1320   -1.6230 C   0  0  0  0  0  0  0  0  0  0  0  0
    3.4200   -1.8180   -1.2650 C   0  0  0  0  0  0  0  0  0  0  0  0
    2.6750   -1.4740   -0.1290 C   0  0  0  0  0  0  0  0  0  0  0  0
    1.4760   -2.2930    0.1980 C   0  0  0  0  0  0  0  0  0  0  0  0
   -0.0550    0.5340    1.3870 C   0  0  0  0  0  0  0  0  0  0  0  0
   -3.2910    1.8000    2.0320 O   0  0  0  0  0  0  0  0  0  0  0  0
   -4.6660    1.9370    1.9630 C   0  0  0  0  0  0  0  0  0  0  0  0
   -5.2480    0.8720    1.1510 C   0  0  0  0  0  0  0  0  0  0  0  0
   -4.5440    0.0070    0.4390 C   0  0  0  0  0  0  0  0  0  0  0  0
   -5.2580   -0.9190   -0.2810 O   0  0  0  0  0  0  0  0  0  0  0  0
  1  2  2  0
  2  3  1  0
  3  4  2  3
  3  6  1  0
  4  5  1  0
  6  7  2  0
  6 26  1  0
  7  8  1  0
  7 23  1  0
  8  9  2  0
  8 22  1  0
  9 10  1  0
 10 11  2  0
 11 12  1  0
 12 13  1  0
 12 22  2  0
 13 14  1  0
 14 15  2  0
 14 20  1  0
 15 16  1  0
 16 17  1  0
 16 18  2  0
 18 19  1  0
 19 20  2  0
 20 21  1  0
 23 24  1  0
 24 25  1  0
 25 26  2  0
 26 27  1  0
M  END
