
     RDKit          3D

 14 13  0  0  0  0  0  0  0  0999 V2000
   -4.6130    0.5780   -0.3600 C   0  0  0  0  0  0  0  0  0  0  0  0
   -3.7030   -0.5450   -0.1730 N   0  0  0  0  0  0  0  0  0  0  0  0
   -2.3620   -0.0510    0.0880 C   0  0  1  0  0  0  0  0  0  0  0  0
   -2.0800   -0.0830    1.5880 C   0  0  0  0  0  0  0  0  0  0  0  0
   -3.0690    0.7650    2.2510 N   0  0  0  0  0  0  0  0  0  0  0  0
   -1.4000   -0.8970   -0.6720 C   0  0  0  0  0  0  0  0  0  0  0  0
    0.0310   -0.4130   -0.4310 C   0  0  2  0  0  0  0  0  0  0  0  0
    0.1580    0.9510   -0.8610 N   0  0  0  0  0  0  0  0  0  0  0  0
    0.9760   -1.2350   -1.2670 C   0  0  0  0  0  0  0  0  0  0  0  0
    2.2800   -1.2200   -1.0580 C   0  0  0  0  0  0  0  0  0  0  0  0
    2.8870   -0.4000    0.0030 C   0  0  1  0  0  0  0  0  0  0  0  0
    3.6040   -1.3510    0.9610 C   0  0  0  0  0  0  0  0  0  0  0  0
    3.8800    0.6070   -0.5530 C   0  0  0  0  0  0  0  0  0  0  0  0
    4.4360    1.3750    0.5340 N   0  0  0  0  0  0  0  0  0  0  0  0
  1  2  1  0
  2  3  1  0
  3  4  1  1
  3  6  1  0
  4  5  1  0
  6  7  1  0
  7  8  1  6
  7  9  1  0
  9 10  2  3
 10 11  1  0
 11 12  1  1
 11 13  1  0
 13 14  1  0
M  CHG  4   2   1   5   1   8   1  14   1
M  END
