
     RDKit          3D

 31 32  0  0  0  0  0  0  0  0999 V2000
    5.8580   -0.1960   -1.8620 C   0  0  0  0  0  0  0  0  0  0  0  0
    4.5700   -0.5670   -1.1250 C   0  0  0  0  0  0  0  0  0  0  0  0
    3.4480   -0.7900   -2.0770 C   0  0  1  0  0  0  0  0  0  0  0  0
    3.8030   -1.9120   -3.0500 C   0  0  0  0  0  0  0  0  0  0  0  0
    2.1490   -1.1800   -1.3470 C   0  0  1  0  0  0  0  0  0  0  0  0
    2.4010   -2.3660   -0.6280 O   0  0  0  0  0  0  0  0  0  0  0  0
    1.7860   -0.0420   -0.4450 C   0  0  0  0  0  0  0  0  0  0  0  0
    0.4960   -0.1840    0.3320 C   0  0  1  0  0  0  0  0  0  0  0  0
    0.5830   -1.3510    1.2510 C   0  0  1  0  0  0  0  0  0  0  0  0
    0.2490   -0.9750    2.5900 O   0  0  0  0  0  0  0  0  0  0  0  0
    0.0030   -2.6610    0.9200 C   0  0  0  0  0  0  0  0  0  0  0  0
   -0.7110   -2.9510   -0.3180 C   0  0  0  0  0  0  0  0  0  0  0  0
   -2.2070   -3.1980   -0.2280 C   0  0  0  0  0  0  0  0  0  0  0  0
   -2.9020   -2.4710    0.8740 C   0  0  0  0  0  0  0  0  0  0  0  0
   -4.1380   -1.7290    0.4270 C   0  0  0  0  0  0  0  0  0  0  0  0
   -5.3880   -2.1010    0.7410 C   0  0  0  0  0  0  0  0  0  0  0  0
   -6.3830   -1.1690    0.1540 C   0  0  0  0  0  0  0  0  0  0  0  0
   -5.4830   -0.2150   -0.5350 C   0  0  0  0  0  0  0  0  0  0  0  0
   -4.1970   -0.5560   -0.3660 C   0  0  0  0  0  0  0  0  0  0  0  0
   -3.0280    0.2110   -0.9550 C   0  0  0  0  0  0  0  0  0  0  0  0
   -2.4660    1.0500    0.1100 C   0  0  0  0  0  0  0  0  0  0  0  0
   -1.1540    1.7200   -0.0410 C   0  0  2  0  0  0  0  0  0  0  0  0
   -1.3840    3.1730    0.4150 C   0  0  0  0  0  0  0  0  0  0  0  0
   -0.6650    1.7750   -1.4400 C   0  0  0  0  0  0  0  0  0  0  0  0
   -1.5600    2.5220   -2.4050 C   0  0  0  0  0  0  0  0  0  0  0  0
   -0.0700    1.0970    0.8680 C   0  0  1  0  0  0  0  0  0  0  0  0
   -0.6980    0.8490    2.1330 O   0  0  0  0  0  0  0  0  0  0  0  0
    0.8910    2.1940    1.1750 C   0  0  0  0  0  0  0  0  0  0  0  0
    1.9440    2.0400    2.2060 C   0  0  2  0  0  0  0  0  0  0  0  0
    1.4700    1.8120    3.6210 C   0  0  0  0  0  0  0  0  0  0  0  0
    2.6720    3.4190    2.2730 C   0  0  0  0  0  0  0  0  0  0  0  0
  1  2  1  0
  2  3  1  0
  3  4  1  6
  3  5  1  0
  5  6  1  1
  5  7  1  0
  8  7  1  1
  8  9  1  0
  8 26  1  0
  9 10  1  1
  9 11  1  0
 11 12  1  0
 12 13  1  0
 13 14  1  0
 14 15  1  0
 15 16  2  0
 15 19  1  0
 16 17  1  0
 17 18  1  0
 18 19  2  0
 19 20  1  0
 20 21  1  0
 21 22  1  0
 22 23  1  1
 22 24  1  0
 22 26  1  0
 24 25  1  0
 26 27  1  1
 26 28  1  0
 28 29  1  0
 29 30  1  1
 29 31  1  0
M  END
