
     RDKit          3D

 31 33  0  0  0  0  0  0  0  0999 V2000
    3.1220   -1.2550    3.1710 C   0  0  0  0  0  0  0  0  0  0  0  0
    3.2630   -1.1190    1.6340 C   0  0  0  0  0  0  0  0  0  0  0  0
    2.4150    0.0540    1.1560 C   0  0  1  0  0  0  0  0  0  0  0  0
    2.9250    1.2930    1.8660 C   0  0  0  0  0  0  0  0  0  0  0  0
    4.3410    1.6170    1.8030 C   0  0  0  0  0  0  0  0  0  0  0  0
    4.8260    2.3820    0.5870 C   0  0  0  0  0  0  0  0  0  0  0  0
    4.5060    1.4400   -0.5960 C   0  0  0  0  0  0  0  0  0  0  0  0
    2.9840    1.5000   -0.8020 C   0  0  0  0  0  0  0  0  0  0  0  0
    2.3110    0.2380   -0.3220 C   0  0  1  0  0  0  0  0  0  0  0  0
    3.2770   -0.7300   -0.7840 O   0  0  0  0  0  0  0  0  0  0  0  0
    1.0340   -0.1460   -1.0030 C   0  0  2  0  0  0  0  0  0  0  0  0
    0.9500   -1.6650   -0.9090 C   0  0  0  0  0  0  0  0  0  0  0  0
    1.9960   -2.4690   -1.5510 C   0  0  0  0  0  0  0  0  0  0  0  0
    1.2040    0.0810   -2.5060 C   0  0  0  0  0  0  0  0  0  0  0  0
    0.3060   -0.7500   -3.3610 C   0  0  0  0  0  0  0  0  0  0  0  0
   -1.0880   -0.2110   -3.2400 C   0  0  0  0  0  0  0  0  0  0  0  0
   -1.8830   -0.7230   -2.0790 C   0  0  0  0  0  0  0  0  0  0  0  0
   -1.4910   -0.3800   -0.7210 C   0  0  2  0  0  0  0  0  0  0  0  0
   -2.6440   -0.0260    0.1750 C   0  0  1  0  0  0  0  0  0  0  0  0
   -2.2000    0.5020    1.4040 O   0  0  0  0  0  0  0  0  0  0  0  0
   -3.7480    0.7850   -0.3370 C   0  0  0  0  0  0  0  0  0  0  0  0
   -4.5120    1.2630    0.8870 C   0  0  0  0  0  0  0  0  0  0  0  0
   -5.1280    2.6160    0.9460 C   0  0  0  0  0  0  0  0  0  0  0  0
   -4.6400    0.4780    1.9240 C   0  0  0  0  0  0  0  0  0  0  0  0
   -4.0820   -0.8830    2.0010 C   0  0  0  0  0  0  0  0  0  0  0  0
   -3.3820   -1.2870    0.7110 C   0  0  1  0  0  0  0  0  0  0  0  0
   -4.4270   -1.8110   -0.1950 C   0  0  0  0  0  0  0  0  0  0  0  0
   -2.4370   -2.3900    1.0630 C   0  0  0  0  0  0  0  0  0  0  0  0
   -0.2330    0.4630   -0.5050 C   0  0  2  0  0  0  0  0  0  0  0  0
   -0.5300    1.8730   -0.6640 C   0  0  0  0  0  0  0  0  0  0  0  0
    0.2880    2.8330   -0.0850 O   0  0  0  0  0  0  0  0  0  0  0  0
  1  2  1  0
  3  2  1  6
  3  4  1  0
  3  9  1  0
  4  5  1  0
  5  6  1  0
  6  7  1  0
  7  8  1  0
  8  9  1  0
  9 10  1  6
  9 11  1  0
 11 12  1  6
 11 14  1  0
 11 29  1  0
 12 13  1  0
 14 15  1  0
 15 16  1  0
 16 17  1  0
 18 17  1  6
 18 19  1  0
 18 29  1  0
 19 20  1  1
 19 21  1  0
 19 26  1  0
 21 22  1  0
 22 23  1  0
 22 24  2  0
 24 25  1  0
 25 26  1  0
 26 27  1  6
 26 28  1  0
 29 30  1  6
 30 31  1  0
M  END
