
     RDKit          3D

 31 33  0  0  0  0  0  0  0  0999 V2000
   -1.4110   -2.8790   -1.7200 C   0  0  0  0  0  0  0  0  0  0  0  0
   -1.1550   -2.1610   -0.4800 C   0  0  1  0  0  0  0  0  0  0  0  0
   -0.6580   -3.1980    0.5700 C   0  0  0  0  0  0  0  0  0  0  0  0
   -1.5340   -3.2620    1.8010 C   0  0  0  0  0  0  0  0  0  0  0  0
   -0.9940   -2.4450    2.9380 C   0  0  0  0  0  0  0  0  0  0  0  0
   -1.2840   -0.9520    2.8030 C   0  0  0  0  0  0  0  0  0  0  0  0
   -1.9120   -0.4920    1.6240 C   0  0  0  0  0  0  0  0  0  0  0  0
   -1.4090    0.0890    0.3120 C   0  0  1  0  0  0  0  0  0  0  0  0
   -2.7290    0.0500   -0.4930 C   0  0  0  0  0  0  0  0  0  0  0  0
   -3.3800    1.2060   -1.0500 C   0  0  0  0  0  0  0  0  0  0  0  0
   -3.9460    2.3330   -0.3330 C   0  0  0  0  0  0  0  0  0  0  0  0
   -3.6200    2.3340    1.1020 C   0  0  0  0  0  0  0  0  0  0  0  0
   -2.2540    2.1850    1.4800 C   0  0  0  0  0  0  0  0  0  0  0  0
   -1.1800    1.5210    0.6470 C   0  0  2  0  0  0  0  0  0  0  0  0
   -0.8060    2.4950   -0.3980 C   0  0  0  0  0  0  0  0  0  0  0  0
   -0.1150    1.6990    1.5960 O   0  0  0  0  0  0  0  0  0  0  0  0
   -0.4260   -0.8070   -0.3400 C   0  0  1  0  0  0  0  0  0  0  0  0
    0.4160   -1.1340    0.7470 O   0  0  0  0  0  0  0  0  0  0  0  0
    0.6420   -0.5510   -1.3040 C   0  0  1  0  0  0  0  0  0  0  0  0
    1.7930    0.3870   -0.9380 C   0  0  0  0  0  0  0  0  0  0  0  0
    2.7090    0.1870    0.1780 C   0  0  0  0  0  0  0  0  0  0  0  0
    3.8300    1.2810    0.1990 C   0  0  1  0  0  0  0  0  0  0  0  0
    3.2190    2.6280    0.3390 C   0  0  0  0  0  0  0  0  0  0  0  0
    4.6660    0.9570    1.3840 C   0  0  0  0  0  0  0  0  0  0  0  0
    3.9850    0.9640    2.7070 C   0  0  0  0  0  0  0  0  0  0  0  0
    4.9810    0.6370    3.6620 O   0  0  0  0  0  0  0  0  0  0  0  0
    1.3990   -1.8370   -1.5720 C   0  0  0  0  0  0  0  0  0  0  0  0
    1.8370   -1.9160   -2.9850 C   0  0  0  0  0  0  0  0  0  0  0  0
    1.5260   -0.6460   -3.5880 C   0  0  0  0  0  0  0  0  0  0  0  0
    0.4180   -0.0790   -2.7100 C   0  0  1  0  0  0  0  0  0  0  0  0
   -0.7780   -0.0130   -3.4660 C   0  0  0  0  0  0  0  0  0  0  0  0
  2  1  1  6
  2  3  1  0
  2 17  1  0
  3  4  1  0
  4  5  1  0
  5  6  1  0
  6  7  1  0
  8  7  1  1
  8  9  1  0
  8 14  1  0
  8 17  1  0
  9 10  1  0
 10 11  1  0
 11 12  1  0
 12 13  1  0
 13 14  1  0
 14 15  1  6
 14 16  1  0
 17 18  1  1
 17 19  1  0
 19 20  1  1
 19 27  1  0
 19 30  1  0
 20 21  1  0
 21 22  1  0
 22 23  1  1
 22 24  1  0
 24 25  1  0
 25 26  1  0
 27 28  1  0
 28 29  1  0
 29 30  1  0
 30 31  1  6
M  END
