
     RDKit          3D

 31 33  0  0  0  0  0  0  0  0999 V2000
   -3.1890    2.8160   -1.4840 C   0  0  0  0  0  0  0  0  0  0  0  0
   -1.8180    3.2960   -1.3710 C   0  0  1  0  0  0  0  0  0  0  0  0
   -1.7010    4.6380   -0.6400 C   0  0  0  0  0  0  0  0  0  0  0  0
   -0.7000    2.3320   -0.9880 C   0  0  1  0  0  0  0  0  0  0  0  0
    0.3590    3.2160   -0.9640 O   0  0  0  0  0  0  0  0  0  0  0  0
   -0.9810    1.3900    0.0590 C   0  0  2  0  0  0  0  0  0  0  0  0
   -1.3380    2.1960    1.3090 C   0  0  0  0  0  0  0  0  0  0  0  0
   -0.5310    0.0110    0.2830 C   0  0  1  0  0  0  0  0  0  0  0  0
   -1.2120   -0.2970    1.4960 O   0  0  0  0  0  0  0  0  0  0  0  0
   -1.1210   -0.9670   -0.7260 C   0  0  1  0  0  0  0  0  0  0  0  0
   -0.7410   -2.4100   -0.5880 C   0  0  0  0  0  0  0  0  0  0  0  0
   -1.3630   -3.3030    0.3590 C   0  0  0  0  0  0  0  0  0  0  0  0
   -2.6870   -3.0370    0.9370 C   0  0  0  0  0  0  0  0  0  0  0  0
   -3.7830   -2.4810    0.1530 C   0  0  0  0  0  0  0  0  0  0  0  0
   -3.6720   -1.0820   -0.3900 C   0  0  0  0  0  0  0  0  0  0  0  0
   -2.4550   -0.9030   -1.2700 C   0  0  1  0  0  0  0  0  0  0  0  0
   -2.7560   -0.3200   -2.6350 C   0  0  0  0  0  0  0  0  0  0  0  0
   -4.1250   -0.3660   -2.9150 O   0  0  0  0  0  0  0  0  0  0  0  0
    0.8550   -0.3580    0.6570 C   0  0  1  0  0  0  0  0  0  0  0  0
    1.9950   -0.1200   -0.2900 C   0  0  1  0  0  0  0  0  0  0  0  0
    2.6200    1.2090   -0.3890 C   0  0  0  0  0  0  0  0  0  0  0  0
    4.1650    1.1220   -0.2300 C   0  0  0  0  0  0  0  0  0  0  0  0
    4.6570    0.3140   -1.3960 C   0  0  1  0  0  0  0  0  0  0  0  0
    6.1110   -0.0620   -1.0800 C   0  0  0  0  0  0  0  0  0  0  0  0
    3.8520   -0.9450   -1.6050 C   0  0  0  0  0  0  0  0  0  0  0  0
    3.0740   -1.1860   -0.2900 C   0  0  0  0  0  0  0  0  0  0  0  0
    1.1760    0.5450    1.9370 C   0  0  0  0  0  0  0  0  0  0  0  0
    0.7180   -0.1750    3.1490 C   0  0  0  0  0  0  0  0  0  0  0  0
    0.5240   -1.5820    2.7700 C   0  0  2  0  0  0  0  0  0  0  0  0
    1.3820   -2.4330    3.7300 C   0  0  0  0  0  0  0  0  0  0  0  0
    1.1960   -1.5630    1.4140 C   0  0  0  0  0  0  0  0  0  0  0  0
  2  1  1  1
  2  3  1  0
  2  4  1  0
  4  5  1  1
  4  6  1  0
  6  7  1  1
  6  8  1  0
  8  9  1  1
  8 10  1  0
  8 19  1  0
 10 11  1  1
 10 16  1  0
 11 12  1  0
 12 13  1  0
 13 14  1  0
 14 15  1  0
 15 16  1  0
 16 17  1  1
 17 18  1  0
 19 20  1  0
 19 27  1  1
 19 31  1  0
 20 21  1  1
 20 26  1  0
 21 22  1  0
 22 23  1  0
 23 24  1  1
 23 25  1  0
 25 26  1  0
 27 28  1  0
 28 29  1  0
 29 30  1  1
 29 31  1  0
M  END
