
     RDKit          3D

 11 11  0  0  0  0  0  0  0  0999 V2000
    3.7660    0.2440    0.8290 N   0  0  0  0  0  0  0  0  0  0  0  0
    2.7710    0.5840   -0.1260 C   0  0  0  0  0  0  0  0  0  0  0  0
    3.1570    1.1440   -1.1810 O   0  0  0  0  0  0  0  0  0  0  0  0
    1.3610    0.2810    0.1380 C   0  0  0  0  0  0  0  0  0  0  0  0
    1.0430   -0.2750    1.2030 O   0  0  0  0  0  0  0  0  0  0  0  0
    0.3590    0.5910   -0.7570 O   0  0  0  0  0  0  0  0  0  0  0  0
   -0.9960    0.3000   -0.5020 C   0  0  0  0  0  0  0  0  0  0  0  0
   -1.6980   -0.8190   -0.8060 C   0  0  0  0  0  0  0  0  0  0  0  0
   -2.9870   -0.8590   -0.4570 C   0  0  0  0  0  0  0  0  0  0  0  0
   -3.5080    0.2170    0.1750 C   0  0  0  0  0  0  0  0  0  0  0  0
   -2.1660    1.3660    0.3100 S   0  0  0  0  0  0  0  0  0  0  0  0
  1  2  1  0
  2  3  2  0
  2  4  1  0
  4  5  2  0
  4  6  1  0
  6  7  1  0
  7  8  2  0
  7 11  1  0
  8  9  1  0
  9 10  2  0
 10 11  1  0
M  END
