
     RDKit          3D

 27 28  0  0  0  0  0  0  0  0999 V2000
   -5.1680    2.0330   -1.9890 C   0  0  0  0  0  0  0  0  0  0  0  0
   -4.7310    2.1530   -0.5750 C   0  0  0  0  0  0  0  0  0  0  0  0
   -3.8420    0.9750   -0.1880 N   0  0  0  0  0  0  0  0  0  0  0  0
   -2.5020    1.2140   -0.4320 C   0  0  0  0  0  0  0  0  0  0  0  0
   -2.2500    2.4010   -0.9920 O   0  0  0  0  0  0  0  0  0  0  0  0
   -1.2880    0.4650   -0.2140 C   0  0  0  0  0  0  0  0  0  0  0  0
   -0.1070    1.0120   -0.5710 C   0  0  0  0  0  0  0  0  0  0  0  0
    1.1820    0.3630   -0.4020 C   0  0  0  0  0  0  0  0  0  0  0  0
    1.1680   -1.0030   -0.0150 N   0  0  0  0  0  0  0  0  0  0  0  0
    2.3400   -1.6740   -0.5360 C   0  0  0  0  0  0  0  0  0  0  0  0
    3.4940   -1.0800    0.1950 C   0  0  0  0  0  0  0  0  0  0  0  0
    4.4870   -0.4560   -0.4410 C   0  0  0  0  0  0  0  0  0  0  0  0
    5.6150    0.1280    0.2340 C   0  0  0  0  0  0  0  0  0  0  0  0
    6.5840    0.7300   -0.4650 C   0  0  0  0  0  0  0  0  0  0  0  0
    6.5930    0.8470   -1.8960 C   0  0  0  0  0  0  0  0  0  0  0  0
    7.5460    1.4280   -2.4630 O   0  0  0  0  0  0  0  0  0  0  0  0
    5.7110    0.0760    1.7090 C   0  0  2  0  0  0  0  0  0  0  0  0
    7.3050   -0.5830    2.2390 S   0  0  0  0  0  0  0  0  0  0  0  0
    8.3870    0.5000    2.2540 O   0  0  0  0  0  0  0  0  0  0  0  0
    4.5940   -0.6200    2.3270 C   0  0  0  0  0  0  0  0  0  0  0  0
    3.6040   -1.1340    1.6380 C   0  0  0  0  0  0  0  0  0  0  0  0
   -0.0800   -1.6440   -0.3850 C   0  0  0  0  0  0  0  0  0  0  0  0
   -1.1780   -0.8700    0.3940 C   0  0  0  0  0  0  0  0  0  0  0  0
   -4.5810   -0.1260    0.3080 C   0  0  1  0  0  0  0  0  0  0  0  0
   -4.5010   -1.3300   -0.6460 C   0  0  0  0  0  0  0  0  0  0  0  0
   -4.2150   -0.6100    1.6840 C   0  0  0  0  0  0  0  0  0  0  0  0
   -6.1030    0.1980    0.4290 C   0  0  0  0  0  0  0  0  0  0  0  0
  1  2  1  0
  2  3  1  0
  3  4  1  0
  3 24  1  0
  4  5  2  0
  4  6  1  0
  6  7  2  0
  6 23  1  0
  7  8  1  0
  8  9  1  0
  9 10  1  0
  9 22  1  0
 10 11  1  0
 11 12  2  0
 11 21  1  0
 12 13  1  0
 13 14  2  3
 13 17  1  0
 14 15  1  0
 15 16  2  0
 17 18  1  6
 17 20  1  0
 18 19  2  0
 20 21  2  0
 22 23  1  0
 24 25  1  6
 24 26  1  0
 24 27  1  0
M  END
