
     RDKit          3D

 10 10  0  0  0  0  0  0  0  0999 V2000
    3.7040    0.0190    0.0580 C   0  0  0  0  0  0  0  0  0  0  0  0
    2.3120    0.2370   -0.4380 C   0  0  0  0  0  0  0  0  0  0  0  0
    2.0850    0.7400   -1.5730 O   0  0  0  0  0  0  0  0  0  0  0  0
    1.2040   -0.1040    0.3300 O   0  0  0  0  0  0  0  0  0  0  0  0
   -0.1040    0.0990   -0.1320 C   0  0  1  0  0  0  0  0  0  0  0  0
   -0.8020   -1.2600   -0.1290 C   0  0  0  0  0  0  0  0  0  0  0  0
   -2.0590   -1.1420   -0.7150 O   0  0  0  0  0  0  0  0  0  0  0  0
   -2.8160   -0.2130   -0.0390 C   0  0  0  0  0  0  0  0  0  0  0  0
   -2.0820    1.1190    0.0900 C   0  0  0  0  0  0  0  0  0  0  0  0
   -0.8470    0.9100    0.7340 O   0  0  0  0  0  0  0  0  0  0  0  0
  1  2  1  0
  2  3  2  0
  2  4  1  0
  5  4  1  1
  5  6  1  0
  5 10  1  0
  6  7  1  0
  7  8  1  0
  8  9  1  0
  9 10  1  0
M  END
