
     RDKit          3D

 27 28  0  0  0  0  0  0  0  0999 V2000
   -3.4880   -3.8370   -0.3770 C   0  0  0  0  0  0  0  0  0  0  0  0
   -3.3020   -2.7360   -1.3950 C   0  0  0  0  0  0  0  0  0  0  0  0
   -2.1420   -1.8830   -1.0400 N   0  0  0  0  0  0  0  0  0  0  0  0
   -2.5700   -0.7970   -0.1890 C   0  0  0  0  0  0  0  0  0  0  0  0
   -2.3150    0.5810   -0.7230 C   0  0  0  0  0  0  0  0  0  0  0  0
   -2.2990    1.4360    0.4140 O   0  0  0  0  0  0  0  0  0  0  0  0
   -1.5550    2.5640    0.6430 C   0  0  0  0  0  0  0  0  0  0  0  0
   -2.3400    3.6070    0.9860 C   0  0  0  0  0  0  0  0  0  0  0  0
   -1.9930    5.0060    1.3190 C   0  0  0  0  0  0  0  0  0  0  0  0
   -0.8680    5.6540    0.9960 C   0  0  0  0  0  0  0  0  0  0  0  0
    0.2840    5.1230    0.2330 C   0  0  0  0  0  0  0  0  0  0  0  0
    0.6090    3.8340    0.0400 C   0  0  0  0  0  0  0  0  0  0  0  0
   -0.0950    2.6430    0.5340 C   0  0  0  0  0  0  0  0  0  0  0  0
    0.7450    1.7190    0.8470 C   0  0  0  0  0  0  0  0  0  0  0  0
    1.9830    1.6290    0.4980 C   0  0  0  0  0  0  0  0  0  0  0  0
    2.5910    0.3780   -0.0350 C   0  0  0  0  0  0  0  0  0  0  0  0
    3.6010    0.5220   -0.8940 C   0  0  0  0  0  0  0  0  0  0  0  0
    4.3240   -0.5410   -1.5320 C   0  0  0  0  0  0  0  0  0  0  0  0
    5.2770   -0.2650   -2.3170 O   0  0  0  0  0  0  0  0  0  0  0  0
    2.1530   -0.9480    0.3520 C   0  0  0  0  0  0  0  0  0  0  0  0
    3.0480   -1.8190    0.7800 C   0  0  0  0  0  0  0  0  0  0  0  0
    2.7170   -3.2140    1.2020 C   0  0  0  0  0  0  0  0  0  0  0  0
    3.1890   -3.4430    2.9250 S   0  0  0  0  0  0  0  0  0  0  0  0
    0.7320   -1.4040    0.3240 C   0  0  0  0  0  0  0  0  0  0  0  0
    0.3970   -2.1750   -0.8570 N   0  0  0  0  0  0  0  0  0  0  0  0
   -0.8580   -2.1700   -1.5070 C   0  0  0  0  0  0  0  0  0  0  0  0
   -0.7980   -2.4890   -2.7560 O   0  0  0  0  0  0  0  0  0  0  0  0
  1  2  1  0
  2  3  1  0
  3  4  1  0
  3 26  1  0
  4  5  1  0
  5  6  1  0
  6  7  1  0
  7  8  2  0
  7 13  1  0
  8  9  1  0
  9 10  2  0
 10 11  1  0
 11 12  2  0
 12 13  1  0
 13 14  2  0
 14 15  2  0
 15 16  1  0
 16 17  2  3
 16 20  1  0
 17 18  1  0
 18 19  2  0
 20 21  2  3
 20 24  1  0
 21 22  1  0
 22 23  1  0
 24 25  1  0
 25 26  1  0
 26 27  2  0
M  END
