
     RDKit          3D

 27 28  0  0  0  0  0  0  0  0999 V2000
    6.0920    0.9790   -0.0270 C   0  0  0  0  0  0  0  0  0  0  0  0
    4.8490    0.1560    0.0020 C   0  0  0  0  0  0  0  0  0  0  0  0
    4.1830    0.0560   -1.3560 C   0  0  0  0  0  0  0  0  0  0  0  0
    2.9520   -0.8280   -1.1270 C   0  0  0  0  0  0  0  0  0  0  0  0
    3.2110   -2.1830   -1.0890 C   0  0  0  0  0  0  0  0  0  0  0  0
    4.4240   -2.9610   -1.2750 C   0  0  0  0  0  0  0  0  0  0  0  0
    5.5430   -2.4850   -1.5460 O   0  0  0  0  0  0  0  0  0  0  0  0
    1.5910   -2.8860   -0.7790 S   0  0  0  0  0  0  0  0  0  0  0  0
    0.7080   -1.3700   -0.7250 C   0  0  0  0  0  0  0  0  0  0  0  0
    1.6680   -0.4340   -0.9390 C   0  0  0  0  0  0  0  0  0  0  0  0
    1.2250    1.0190   -0.9550 C   0  0  0  0  0  0  0  0  0  0  0  0
    1.7430    1.7380   -1.8800 O   0  0  0  0  0  0  0  0  0  0  0  0
    0.3660    1.5920   -0.1110 O   0  0  0  0  0  0  0  0  0  0  0  0
    0.2650    1.9880    1.1780 C   0  0  0  0  0  0  0  0  0  0  0  0
   -0.6870    3.1960    1.2320 C   0  0  0  0  0  0  0  0  0  0  0  0
   -1.9580    2.8340    1.9160 C   0  0  0  0  0  0  0  0  0  0  0  0
   -3.1690    3.0470    1.1000 C   0  0  0  0  0  0  0  0  0  0  0  0
   -3.4850    2.6500   -0.0830 C   0  0  0  0  0  0  0  0  0  0  0  0
   -2.7570    1.8320   -1.0730 C   0  0  0  0  0  0  0  0  0  0  0  0
   -2.5470    0.4170   -0.5590 C   0  0  1  0  0  0  0  0  0  0  0  0
   -3.8340   -0.2150   -0.4260 N   0  0  0  0  0  0  0  0  0  0  0  0
   -4.2720   -0.8780   -1.6210 C   0  0  0  0  0  0  0  0  0  0  0  0
   -1.5480   -0.3620   -1.3340 C   0  0  0  0  0  0  0  0  0  0  0  0
   -0.6670   -1.2020   -0.5190 N   0  0  0  0  0  0  0  0  0  0  0  0
   -1.3300   -1.8930    0.5610 C   0  0  0  0  0  0  0  0  0  0  0  0
   -0.4360   -2.8420    1.3300 C   0  0  0  0  0  0  0  0  0  0  0  0
   -1.2330   -3.4930    2.4760 C   0  0  0  0  0  0  0  0  0  0  0  0
  1  2  1  0
  2  3  1  0
  3  4  1  0
  4  5  2  0
  4 10  1  0
  5  6  1  0
  5  8  1  0
  6  7  2  0
  8  9  1  0
  9 10  2  0
  9 24  1  0
 10 11  1  0
 11 12  2  0
 11 13  1  0
 13 14  1  0
 14 15  1  0
 15 16  1  0
 16 17  1  0
 17 18  2  0
 18 19  1  0
 19 20  1  0
 20 21  1  6
 20 23  1  0
 21 22  1  0
 23 24  1  0
 24 25  1  0
 25 26  1  0
 26 27  1  0
M  CHG  1  21   1
M  END
