
     RDKit          3D

 27 28  0  0  0  0  0  0  0  0999 V2000
    4.1120    2.9950   -0.9570 C   0  0  0  0  0  0  0  0  0  0  0  0
    4.8480    2.0090   -0.6820 C   0  0  0  0  0  0  0  0  0  0  0  0
    4.7580    0.6710   -0.2940 C   0  0  0  0  0  0  0  0  0  0  0  0
    6.0410    0.1020   -0.1850 C   0  0  0  0  0  0  0  0  0  0  0  0
    3.7550   -0.3120   -0.0240 C   0  0  0  0  0  0  0  0  0  0  0  0
    2.4620   -0.1010    0.0070 C   0  0  0  0  0  0  0  0  0  0  0  0
    2.0770    1.2060   -0.2280 O   0  0  0  0  0  0  0  0  0  0  0  0
    1.5890    1.9690    0.9060 C   0  0  0  0  0  0  0  0  0  0  0  0
    1.3020   -1.0100    0.2410 C   0  0  0  0  0  0  0  0  0  0  0  0
    0.0490   -0.5470   -0.3750 C   0  0  0  0  0  0  0  0  0  0  0  0
    0.0780    0.5680   -0.9970 O   0  0  0  0  0  0  0  0  0  0  0  0
   -1.1770   -1.2320   -0.3370 N   0  0  0  0  0  0  0  0  0  0  0  0
   -2.4430   -0.8790   -0.8680 C   0  0  0  0  0  0  0  0  0  0  0  0
   -3.2910    0.1870   -0.4100 C   0  0  1  0  0  0  0  0  0  0  0  0
   -2.8910    1.5590   -0.4270 N   0  0  1  0  0  0  0  0  0  0  0  0
   -2.0690    2.0100    0.6440 C   0  0  0  0  0  0  0  0  0  0  0  0
   -2.4860    2.0810   -1.6930 C   0  0  0  0  0  0  0  0  0  0  0  0
   -4.5490    0.2080   -1.3530 C   0  0  0  0  0  0  0  0  0  0  0  0
   -5.0330   -1.1590   -1.6730 C   0  0  0  0  0  0  0  0  0  0  0  0
   -5.4590   -2.0010   -0.1190 S   0  0  0  0  0  0  0  0  0  0  0  0
   -4.3660   -1.4330    1.2180 C   0  0  0  0  0  0  0  0  0  0  0  0
   -3.8700   -0.0470    0.9920 C   0  0  0  0  0  0  0  0  0  0  0  0
    1.3710   -2.1370    0.8910 C   0  0  0  0  0  0  0  0  0  0  0  0
    2.5590   -2.7740    1.5260 C   0  0  0  0  0  0  0  0  0  0  0  0
    3.8200   -2.5490    1.2280 C   0  0  0  0  0  0  0  0  0  0  0  0
    4.8050   -3.3220    2.0160 C   0  0  0  0  0  0  0  0  0  0  0  0
    4.2820   -1.6500    0.2390 O   0  0  0  0  0  0  0  0  0  0  0  0
  1  2  2  0
  2  3  1  0
  3  4  2  0
  3  5  1  0
  5  6  2  0
  5 27  1  0
  6  7  1  0
  6  9  1  0
  7  8  1  0
  9 10  1  0
  9 23  2  0
 10 11  2  0
 10 12  1  0
 12 13  1  0
 14 13  1  6
 14 15  1  0
 14 18  1  0
 14 22  1  0
 15 16  1  1
 15 17  1  0
 18 19  1  0
 19 20  1  0
 20 21  1  0
 21 22  1  0
 23 24  1  0
 24 25  2  0
 25 26  1  0
 25 27  1  0
M  CHG  1  15   1
M  END
