
     RDKit          3D

 27 27  0  0  0  0  0  0  0  0999 V2000
   -4.8310    3.8720   -0.5870 C   0  0  0  0  0  0  0  0  0  0  0  0
   -3.7270    2.9740   -1.1700 C   0  0  0  0  0  0  0  0  0  0  0  0
   -3.1000    2.4520   -0.2450 C   0  0  0  0  0  0  0  0  0  0  0  0
   -2.2100    1.7140    0.4860 N   0  0  0  0  0  0  0  0  0  0  0  0
   -2.3500    3.0430    1.7030 C   0  0  0  0  0  0  0  0  0  0  0  0
   -3.5110    2.5030    2.4620 C   0  0  0  0  0  0  0  0  0  0  0  0
   -1.3730    1.0220    1.1730 C   0  0  0  0  0  0  0  0  0  0  0  0
   -1.0290   -0.3560    0.6220 C   0  0  0  0  0  0  0  0  0  0  0  0
    0.1310   -0.4650   -0.0500 C   0  0  0  0  0  0  0  0  0  0  0  0
    0.7350    1.0250   -0.0340 C   0  0  0  0  0  0  0  0  0  0  0  0
    1.8760    1.0160   -0.6300 C   0  0  0  0  0  0  0  0  0  0  0  0
    2.7130    2.7320   -0.6430 S   0  0  0  0  0  0  0  0  0  0  0  0
    4.0380    2.1950    0.5390 C   0  0  0  0  0  0  0  0  0  0  0  0
    4.8510    1.1030   -0.0240 C   0  0  0  0  0  0  0  0  0  0  0  0
    6.1770    0.9370    0.1990 C   0  0  0  0  0  0  0  0  0  0  0  0
    6.5990   -0.4670   -0.5810 C   0  0  0  0  0  0  0  0  0  0  0  0
    8.1120   -0.2950   -0.4520 C   0  0  0  0  0  0  0  0  0  0  0  0
    4.1830    0.0620   -0.9080 N   0  0  0  0  0  0  0  0  0  0  0  0
    2.7820    0.0980   -1.1640 C   0  0  0  0  0  0  0  0  0  0  0  0
    2.2610   -0.7870   -1.9710 O   0  0  0  0  0  0  0  0  0  0  0  0
   -1.9300   -1.4370    0.7280 C   0  0  0  0  0  0  0  0  0  0  0  0
   -3.0530   -1.3800    1.2230 O   0  0  0  0  0  0  0  0  0  0  0  0
   -1.5070   -2.7030    0.2180 O   0  0  0  0  0  0  0  0  0  0  0  0
   -2.3660   -3.8140    0.1300 C   0  0  2  0  0  0  0  0  0  0  0  0
   -1.5480   -5.0680   -0.0410 C   0  0  0  0  0  0  0  0  0  0  0  0
   -3.0030   -3.6930   -1.3150 C   0  0  0  0  0  0  0  0  0  0  0  0
   -3.5040   -3.9700    1.0720 C   0  0  0  0  0  0  0  0  0  0  0  0
  1  2  1  0
  2  3  2  3
  3  4  1  0
  4  5  1  0
  4  7  1  0
  5  6  1  0
  7  8  1  0
  8  9  2  3
  8 21  1  0
  9 10  1  0
 10 11  2  3
 11 12  1  0
 11 19  1  0
 12 13  1  0
 13 14  1  0
 14 15  2  3
 14 18  1  0
 15 16  1  0
 16 17  1  0
 18 19  1  0
 19 20  2  0
 21 22  2  0
 21 23  1  0
 23 24  1  0
 24 25  1  6
 24 26  1  0
 24 27  1  0
M  END
