
     RDKit          3D

 37 39  0  0  0  0  0  0  0  0999 V2000
    8.4820    1.1600    1.2780 C   0  0  0  0  0  0  0  0  0  0  0  0
    7.2040    1.4690    0.5720 C   0  0  0  0  0  0  0  0  0  0  0  0
    7.0490    2.0550   -0.6110 N   0  0  0  0  0  0  0  0  0  0  0  0
    5.7900    2.1790   -0.9280 N   0  0  0  0  0  0  0  0  0  0  0  0
    5.0920    1.6510    0.0960 C   0  0  0  0  0  0  0  0  0  0  0  0
    3.6580    1.6110    0.1630 N   0  0  0  0  0  0  0  0  0  0  0  0
    5.9410    1.2040    1.0340 N   0  0  0  0  0  0  0  0  0  0  0  0
    5.6510    0.5560    2.2910 C   0  0  0  0  0  0  0  0  0  0  0  0
    5.6800   -0.9230    2.1880 C   0  0  1  0  0  0  0  0  0  0  0  0
    5.3660   -1.5750    3.5430 C   0  0  0  0  0  0  0  0  0  0  0  0
    4.4160   -2.6770    3.1400 C   0  0  0  0  0  0  0  0  0  0  0  0
    3.6500   -1.9810    2.0960 N   0  0  2  0  0  0  0  0  0  0  0  0
    2.7550   -2.8830    1.4230 C   0  0  0  0  0  0  0  0  0  0  0  0
    1.3470   -2.4030    1.5480 C   0  0  0  0  0  0  0  0  0  0  0  0
    1.1630   -1.0780    0.9090 C   0  0  0  0  0  0  0  0  0  0  0  0
   -0.2570   -0.5930    1.0230 C   0  0  0  0  0  0  0  0  0  0  0  0
   -1.1060   -1.2780    1.6390 O   0  0  0  0  0  0  0  0  0  0  0  0
   -0.6650    0.6280    0.4450 N   0  0  0  0  0  0  0  0  0  0  0  0
   -1.9690    1.0940    0.5280 N   0  0  0  0  0  0  0  0  0  0  0  0
   -3.1110    0.3200    0.2120 C   0  0  0  0  0  0  0  0  0  0  0  0
   -2.9670   -0.8820   -0.1520 O   0  0  0  0  0  0  0  0  0  0  0  0
   -4.4330    0.7990    0.2700 N   0  0  0  0  0  0  0  0  0  0  0  0
   -5.6090   -0.0260   -0.0590 C   0  0  1  0  0  0  0  0  0  0  0  0
   -6.6120    0.2190    1.0200 C   0  0  0  0  0  0  0  0  0  0  0  0
   -6.0660    0.2860   -1.4180 C   0  0  0  0  0  0  0  0  0  0  0  0
   -5.4310    1.1790   -2.1460 C   0  0  0  0  0  0  0  0  0  0  0  0
   -5.7780    1.5740   -3.4880 C   0  0  0  0  0  0  0  0  0  0  0  0
   -6.8020    1.0950   -4.2040 C   0  0  0  0  0  0  0  0  0  0  0  0
   -7.0130    1.6030   -5.5580 C   0  0  0  0  0  0  0  0  0  0  0  0
   -6.2400    2.4630   -6.0130 O   0  0  0  0  0  0  0  0  0  0  0  0
   -8.0560    1.1280   -6.3050 O   0  0  0  0  0  0  0  0  0  0  0  0
   -8.3780    1.6750   -7.9090 S   0  0  0  0  0  0  0  0  0  0  0  0
   -7.4040    2.7640   -8.3320 O   0  0  0  0  0  0  0  0  0  0  0  0
   -7.7010    0.1300   -3.6940 N   0  0  0  0  0  0  0  0  0  0  0  0
   -7.4510   -0.5470   -2.1220 S   0  0  0  0  0  0  0  0  0  0  0  0
   -8.6660   -0.5570   -1.2430 O   0  0  0  0  0  0  0  0  0  0  0  0
    4.7400   -1.5720    1.2240 C   0  0  0  0  0  0  0  0  0  0  0  0
  1  2  1  0
  2  3  2  0
  2  7  1  0
  3  4  1  0
  4  5  2  0
  5  6  1  0
  5  7  1  0
  7  8  1  0
  9  8  1  1
  9 10  1  0
  9 37  1  0
 10 11  1  0
 11 12  1  0
 12 13  1  6
 12 37  1  0
 13 14  1  0
 14 15  1  0
 15 16  1  0
 16 17  2  0
 16 18  1  0
 18 19  1  0
 19 20  1  0
 20 21  2  0
 20 22  1  0
 22 23  1  0
 23 24  1  1
 23 25  1  0
 25 26  2  0
 25 35  1  0
 26 27  1  0
 27 28  2  0
 28 29  1  0
 28 34  1  0
 29 30  2  0
 29 31  1  0
 31 32  1  0
 32 33  2  0
 35 34  1  6
 35 36  2  0
M  CHG  1  12   1
M  END
