
     RDKit          3D

 37 40  0  0  0  0  0  0  0  0999 V2000
  -10.3100    1.1070    3.0580 C   0  0  0  0  0  0  0  0  0  0  0  0
   -9.0630    0.6520    2.3720 C   0  0  0  0  0  0  0  0  0  0  0  0
   -8.1940   -0.3730    2.6280 C   0  0  0  0  0  0  0  0  0  0  0  0
   -7.1440   -0.5320    1.7940 C   0  0  0  0  0  0  0  0  0  0  0  0
   -6.9740    0.2900    0.7610 C   0  0  0  0  0  0  0  0  0  0  0  0
   -5.9590    0.3820   -0.3120 C   0  0  2  0  0  0  0  0  0  0  0  0
   -5.9840   -0.8890   -1.1000 C   0  0  0  0  0  0  0  0  0  0  0  0
   -4.7770   -1.6490   -0.6110 C   0  0  0  0  0  0  0  0  0  0  0  0
   -3.8410   -0.6480   -0.1020 N   0  0  1  0  0  0  0  0  0  0  0  0
   -2.8670   -0.4100   -1.1610 C   0  0  1  0  0  0  0  0  0  0  0  0
   -3.4200    0.1920   -2.3060 N   0  0  0  0  0  0  0  0  0  0  0  0
   -2.4600    1.1240   -2.7410 N   0  0  0  0  0  0  0  0  0  0  0  0
   -1.7620    1.5890   -1.5980 C   0  0  0  0  0  0  0  0  0  0  0  0
   -1.3050    2.7050   -1.3120 O   0  0  0  0  0  0  0  0  0  0  0  0
   -1.6840    0.3420   -0.7280 C   0  0  2  0  0  0  0  0  0  0  0  0
   -0.4210   -0.3350   -1.1030 N   0  0  0  0  0  0  0  0  0  0  0  0
    0.7440   -0.0940   -0.3060 C   0  0  0  0  0  0  0  0  0  0  0  0
    0.6230    0.6690    0.6910 O   0  0  0  0  0  0  0  0  0  0  0  0
    1.9760   -0.7520   -0.7440 C   0  0  1  0  0  0  0  0  0  0  0  0
    2.1130   -0.3860   -2.2830 C   0  0  0  0  0  0  0  0  0  0  0  0
    3.1420   -0.3190   -0.1390 O   0  0  0  0  0  0  0  0  0  0  0  0
    4.2560   -1.1140    0.1890 C   0  0  0  0  0  0  0  0  0  0  0  0
    4.2600   -2.2860   -0.0290 O   0  0  0  0  0  0  0  0  0  0  0  0
    5.3960   -0.3030    0.7970 C   0  0  0  0  0  0  0  0  0  0  0  0
    5.6630    0.7160    1.2380 N   0  0  0  0  0  0  0  0  0  0  0  0
    6.8240    1.2260    1.4240 N   0  0  0  0  0  0  0  0  0  0  0  0
    7.8480    0.6550    1.1380 C   0  0  0  0  0  0  0  0  0  0  0  0
    9.1740    1.0040    1.0070 N   0  0  0  0  0  0  0  0  0  0  0  0
   10.2980    0.0750    0.6790 C   0  0  0  0  0  0  0  0  0  0  0  0
   10.0910   -1.1000    0.7290 O   0  0  0  0  0  0  0  0  0  0  0  0
   11.3780    0.8930    0.3590 N   0  0  0  0  0  0  0  0  0  0  0  0
   12.5170   -0.4060    0.0640 C   0  0  0  0  0  0  0  0  0  0  0  0
   13.7490    0.0970   -0.3030 N   0  0  0  0  0  0  0  0  0  0  0  0
   12.0560   -1.4670    0.2290 O   0  0  0  0  0  0  0  0  0  0  0  0
    7.1490   -0.9760    0.4650 S   0  0  0  0  0  0  0  0  0  0  0  0
   -4.5930    0.5100    0.2670 C   0  0  0  0  0  0  0  0  0  0  0  0
   -8.3490    1.4010    0.8990 S   0  0  0  0  0  0  0  0  0  0  0  0
  1  2  1  0
  2  3  2  0
  2 37  1  0
  3  4  1  0
  4  5  2  0
  6  5  1  1
  5 37  1  0
  6  7  1  0
  6 36  1  0
  7  8  1  0
  9  8  1  6
  9 10  1  0
  9 36  1  0
 10 11  1  6
 10 15  1  0
 11 12  1  0
 12 13  1  0
 13 14  2  0
 13 15  1  0
 15 16  1  6
 16 17  1  0
 17 18  2  0
 17 19  1  0
 19 20  1  6
 19 21  1  0
 21 22  1  0
 22 23  2  0
 22 24  1  0
 24 25  2  0
 24 35  1  0
 25 26  1  0
 26 27  2  0
 27 28  1  0
 27 35  1  0
 28 29  1  0
 29 30  2  0
 29 31  1  0
 31 32  1  0
 32 33  1  0
 32 34  2  0
M  CHG  1   9   1
M  END
