
     RDKit          3D

 37 40  0  0  0  0  0  0  0  0999 V2000
    1.5270   -3.4350   -2.6570 C   0  0  0  0  0  0  0  0  0  0  0  0
    0.0570   -3.1060   -2.6290 C   0  0  0  0  0  0  0  0  0  0  0  0
   -0.9680   -3.8560   -3.0700 N   0  0  0  0  0  0  0  0  0  0  0  0
   -2.1250   -3.2420   -2.8810 N   0  0  0  0  0  0  0  0  0  0  0  0
   -3.4640   -3.6990   -3.2120 C   0  0  0  0  0  0  0  0  0  0  0  0
   -1.8870   -2.0540   -2.3020 C   0  0  0  0  0  0  0  0  0  0  0  0
   -0.5220   -1.9540   -2.1370 C   0  0  0  0  0  0  0  0  0  0  0  0
   -0.0090   -0.7170   -1.5120 C   0  0  2  0  0  0  0  0  0  0  0  0
    1.3960   -0.7710   -1.2140 N   0  0  0  0  0  0  0  0  0  0  0  0
    2.3720    0.0800   -1.7470 C   0  0  0  0  0  0  0  0  0  0  0  0
    2.0300    0.9730   -2.5520 O   0  0  0  0  0  0  0  0  0  0  0  0
    3.7670   -0.0890   -1.3530 C   0  0  0  0  0  0  0  0  0  0  0  0
    4.8370    0.6860   -1.8040 C   0  0  0  0  0  0  0  0  0  0  0  0
    5.9870    0.2140   -1.2040 C   0  0  0  0  0  0  0  0  0  0  0  0
    5.5780   -0.8330   -0.4070 C   0  0  0  0  0  0  0  0  0  0  0  0
    6.3890   -1.7130    0.4720 C   0  0  0  0  0  0  0  0  0  0  0  0
    6.5040   -1.1260    2.1550 S   0  0  0  0  0  0  0  0  0  0  0  0
    7.4210    0.3920    2.2670 C   0  0  0  0  0  0  0  0  0  0  0  0
    7.9760    1.0230    1.2230 N   0  0  0  0  0  0  0  0  0  0  0  0
    8.5780    2.1060    1.6510 N   0  0  0  0  0  0  0  0  0  0  0  0
    8.3980    2.1550    2.9790 C   0  0  0  0  0  0  0  0  0  0  0  0
    8.8610    3.0890    3.6980 O   0  0  0  0  0  0  0  0  0  0  0  0
    7.6780    1.0910    3.3740 N   0  0  0  0  0  0  0  0  0  0  0  0
    4.2740   -0.9560   -0.5410 O   0  0  0  0  0  0  0  0  0  0  0  0
   -0.8660   -0.4000   -0.3180 C   0  0  0  0  0  0  0  0  0  0  0  0
   -2.2450   -0.0480   -0.8270 C   0  0  2  0  0  0  0  0  0  0  0  0
   -3.2770   -0.1120    0.2740 C   0  0  0  0  0  0  0  0  0  0  0  0
   -3.0380    0.7730    1.3660 N   0  0  0  0  0  0  0  0  0  0  0  0
   -3.9720    1.8860    1.3920 C   0  0  2  0  0  0  0  0  0  0  0  0
   -3.3760    2.9400    2.3140 C   0  0  0  0  0  0  0  0  0  0  0  0
   -5.2870    1.4060    1.9630 C   0  0  0  0  0  0  0  0  0  0  0  0
   -6.4560    2.7460    2.0090 S   0  0  1  0  0  0  0  0  0  0  0  0
   -5.9670    3.8670    2.8830 O   0  0  0  0  0  0  0  0  0  0  0  0
   -6.7040    3.2680    0.6370 O   0  0  0  0  0  0  0  0  0  0  0  0
   -7.9450    2.1710    2.6640 N   0  0  0  0  0  0  0  0  0  0  0  0
   -7.8760    2.3540    4.0120 O   0  0  0  0  0  0  0  0  0  0  0  0
   -2.6910   -0.9650   -1.8580 N   0  0  0  0  0  0  0  0  0  0  0  0
  1  2  1  0
  2  3  2  0
  2  7  1  0
  3  4  1  0
  4  5  1  0
  4  6  1  0
  6  7  2  0
  6 37  1  0
  7  8  1  0
  8  9  1  1
  8 25  1  0
  9 10  1  0
 10 11  2  0
 10 12  1  0
 12 13  2  0
 12 24  1  0
 13 14  1  0
 14 15  2  0
 15 16  1  0
 15 24  1  0
 16 17  1  0
 17 18  1  0
 18 19  2  0
 18 23  1  0
 19 20  1  0
 20 21  1  0
 21 22  2  0
 21 23  1  0
 25 26  1  0
 26 27  1  1
 26 37  1  0
 27 28  1  0
 28 29  1  0
 29 30  1  1
 29 31  1  0
 32 31  1  6
 32 33  2  0
 32 34  2  0
 32 35  1  0
 35 36  1  0
M  CHG  1  28   1
M  END
