
     RDKit          3D

 37 40  0  0  0  0  0  0  0  0999 V2000
   -5.5650   -2.3420    0.4860 C   0  0  0  0  0  0  0  0  0  0  0  0
   -5.6660   -0.9320    0.9540 C   0  0  1  0  0  0  0  0  0  0  0  0
   -4.4430   -0.4350    1.5440 N   0  0  0  0  0  0  0  0  0  0  0  0
   -4.1470   -1.2200    2.6060 O   0  0  0  0  0  0  0  0  0  0  0  0
   -6.1340   -0.0020   -0.1810 C   0  0  1  0  0  0  0  0  0  0  0  0
   -6.1980    1.2910    0.3540 N   0  0  0  0  0  0  0  0  0  0  0  0
   -5.6390    2.6070   -0.5120 S   0  0  1  0  0  0  0  0  0  0  0  0
   -6.7680    3.6270   -0.6190 O   0  0  0  0  0  0  0  0  0  0  0  0
   -4.4380    3.2980    0.1210 O   0  0  0  0  0  0  0  0  0  0  0  0
   -5.2890    2.0990   -2.1210 N   0  0  0  0  0  0  0  0  0  0  0  0
   -4.5760    0.8470   -1.9860 C   0  0  1  0  0  0  0  0  0  0  0  0
   -3.3300    1.0510   -1.3140 N   0  0  0  0  0  0  0  0  0  0  0  0
   -2.1170    0.8890   -2.0150 C   0  0  0  0  0  0  0  0  0  0  0  0
   -2.0410    0.5710   -3.2150 O   0  0  0  0  0  0  0  0  0  0  0  0
   -0.8510    1.1160   -1.2560 C   0  0  0  0  0  0  0  0  0  0  0  0
    0.2980    0.8900   -2.2070 C   0  0  0  0  0  0  0  0  0  0  0  0
    1.5810    1.0590   -1.6200 N   0  0  0  0  0  0  0  0  0  0  0  0
    2.1410    0.0960   -0.7570 C   0  0  0  0  0  0  0  0  0  0  0  0
    3.4070    0.3290   -0.2090 C   0  0  0  0  0  0  0  0  0  0  0  0
    3.9860   -0.6000    0.6100 C   0  0  0  0  0  0  0  0  0  0  0  0
    5.2930   -0.3900    1.1890 N   0  0  0  0  0  0  0  0  0  0  0  0
    6.4090   -0.4090    0.4060 C   0  0  0  0  0  0  0  0  0  0  0  0
    7.5860   -0.2000    1.0570 C   0  0  0  0  0  0  0  0  0  0  0  0
    7.6140    0.0110    2.3960 C   0  0  0  0  0  0  0  0  0  0  0  0
    8.7070    0.2090    3.0260 O   0  0  0  0  0  0  0  0  0  0  0  0
    6.4940    0.0270    3.1630 N   0  0  0  0  0  0  0  0  0  0  0  0
    6.5180    0.2520    4.5940 C   0  0  0  0  0  0  0  0  0  0  0  0
    5.3440   -0.1820    2.4930 C   0  0  0  0  0  0  0  0  0  0  0  0
    4.2830   -0.1680    3.2110 O   0  0  0  0  0  0  0  0  0  0  0  0
    8.8520   -0.2550   -0.1900 S   0  0  0  0  0  0  0  0  0  0  0  0
    7.7040    0.0280   -1.6140 C   0  0  0  0  0  0  0  0  0  0  0  0
    6.4840   -0.6400   -1.0240 C   0  0  0  0  0  0  0  0  0  0  0  0
    3.2840   -1.7570    0.8710 C   0  0  0  0  0  0  0  0  0  0  0  0
    2.0420   -1.9860    0.3330 C   0  0  0  0  0  0  0  0  0  0  0  0
    1.4960   -1.0450   -0.4750 N   0  0  0  0  0  0  0  0  0  0  0  0
   -5.4080   -0.2530   -1.4190 C   0  0  2  0  0  0  0  0  0  0  0  0
   -6.2890   -0.7130   -2.5060 N   0  0  0  0  0  0  0  0  0  0  0  0
  2  1  1  6
  2  3  1  0
  2  5  1  0
  3  4  1  0
  5  6  1  1
  5 36  1  0
  7  6  1  1
  7  8  2  0
  7  9  2  0
  7 10  1  0
 10 11  1  0
 11 12  1  1
 11 36  1  0
 12 13  1  0
 13 14  2  0
 13 15  1  0
 15 16  1  0
 16 17  1  0
 17 18  1  0
 18 19  2  0
 18 35  1  0
 19 20  1  0
 20 21  1  0
 20 33  2  0
 21 22  1  0
 21 28  1  0
 22 23  2  0
 22 32  1  0
 23 24  1  0
 23 30  1  0
 24 25  2  0
 24 26  1  0
 26 27  1  0
 26 28  1  0
 28 29  2  0
 30 31  1  0
 31 32  1  0
 33 34  1  0
 34 35  2  0
 36 37  1  6
M  CHG  1  35   1
M  END
