
     RDKit          3D

 37 40  0  0  0  0  0  0  0  0999 V2000
    3.5690    3.2980    4.4820 N   0  0  0  0  0  0  0  0  0  0  0  0
    3.9980    2.2910    3.6610 O   0  0  0  0  0  0  0  0  0  0  0  0
    5.2450    1.7410    3.7970 C   0  0  0  0  0  0  0  0  0  0  0  0
    5.9900    2.2130    4.7130 O   0  0  0  0  0  0  0  0  0  0  0  0
    5.7320    0.6530    2.9330 C   0  0  0  0  0  0  0  0  0  0  0  0
    7.0110    0.1040    3.1020 C   0  0  0  0  0  0  0  0  0  0  0  0
    7.1180   -0.8540    2.1470 C   0  0  0  0  0  0  0  0  0  0  0  0
    5.9160   -0.8720    1.4140 C   0  0  0  0  0  0  0  0  0  0  0  0
    5.7510   -1.8130    0.3070 C   0  0  0  0  0  0  0  0  0  0  0  0
    4.5490   -1.9090   -0.3020 O   0  0  0  0  0  0  0  0  0  0  0  0
    4.0400   -0.7140   -0.8340 C   0  0  2  0  0  0  0  0  0  0  0  0
    2.5830   -0.5110   -0.4380 C   0  0  0  0  0  0  0  0  0  0  0  0
    1.7590   -1.5790   -0.9560 C   0  0  0  0  0  0  0  0  0  0  0  0
    0.4030   -1.7690   -0.7810 N   0  0  0  0  0  0  0  0  0  0  0  0
   -0.6520   -0.8800   -1.0950 C   0  0  0  0  0  0  0  0  0  0  0  0
   -0.3080    0.2210   -1.5270 O   0  0  0  0  0  0  0  0  0  0  0  0
   -2.0280   -1.2340   -0.9340 N   0  0  0  0  0  0  0  0  0  0  0  0
   -3.0790   -0.2830   -1.2520 C   0  0  1  0  0  0  0  0  0  0  0  0
   -3.2840   -0.2970   -2.7580 C   0  0  0  0  0  0  0  0  0  0  0  0
   -4.3530   -0.2270   -3.4520 N   0  0  0  0  0  0  0  0  0  0  0  0
   -5.6920   -0.1210   -3.0720 C   0  0  0  0  0  0  0  0  0  0  0  0
   -6.8240   -0.8330   -4.0500 S   0  0  0  0  0  0  0  0  0  0  0  0
   -6.4200    0.6800   -1.6680 S   0  0  0  0  0  0  0  0  0  0  0  0
   -5.2360    0.5620   -0.2790 C   0  0  2  0  0  0  0  0  0  0  0  0
   -5.9670    0.5330    1.0230 C   0  0  0  0  0  0  0  0  0  0  0  0
   -6.2200    1.9320    1.6010 C   0  0  0  0  0  0  0  0  0  0  0  0
   -6.4740    2.8880    0.6580 O   0  0  0  0  0  0  0  0  0  0  0  0
   -5.5620    2.9870   -0.3460 C   0  0  0  0  0  0  0  0  0  0  0  0
   -4.4820    1.8980   -0.3340 C   0  0  0  0  0  0  0  0  0  0  0  0
   -4.3390   -0.6240   -0.5400 C   0  0  2  0  0  0  0  0  0  0  0  0
   -4.1680   -1.4990    0.5980 N   0  0  0  0  0  0  0  0  0  0  0  0
    4.1720   -0.7980   -2.3410 C   0  0  0  0  0  0  0  0  0  0  0  0
    4.4570    0.0980   -3.2740 N   0  0  0  0  0  0  0  0  0  0  0  0
    4.4800   -0.5060   -4.4750 N   0  0  0  0  0  0  0  0  0  0  0  0
    4.2120   -1.7680   -4.2790 N   0  0  0  0  0  0  0  0  0  0  0  0
    4.0230   -1.9620   -2.9920 N   0  0  0  0  0  0  0  0  0  0  0  0
    5.1640    0.0530    1.9560 O   0  0  0  0  0  0  0  0  0  0  0  0
  1  2  1  0
  2  3  1  0
  3  4  2  0
  3  5  1  0
  5  6  2  0
  5 37  1  0
  6  7  1  0
  7  8  2  0
  8  9  1  0
  8 37  1  0
  9 10  1  0
 10 11  1  0
 11 12  1  6
 11 32  1  0
 12 13  1  0
 13 14  1  0
 14 15  1  0
 15 16  2  0
 15 17  1  0
 18 17  1  6
 18 19  1  0
 18 30  1  0
 19 20  2  0
 20 21  1  0
 21 22  2  0
 21 23  1  0
 23 24  1  0
 24 25  1  1
 24 29  1  0
 24 30  1  0
 25 26  1  0
 26 27  1  0
 27 28  1  0
 28 29  1  0
 30 31  1  1
 32 33  2  0
 32 36  1  0
 33 34  1  0
 34 35  2  0
 35 36  1  0
M  CHG  1  31   1
M  END
