
     RDKit          3D

 36 40  0  0  0  0  0  0  0  0999 V2000
   -4.0820   -0.8960   -3.3920 C   0  0  0  0  0  0  0  0  0  0  0  0
   -3.2160   -0.9310   -2.1810 C   0  0  0  0  0  0  0  0  0  0  0  0
   -3.5290   -0.8000   -0.8590 C   0  0  0  0  0  0  0  0  0  0  0  0
   -4.8560   -0.6410   -0.2810 C   0  0  0  0  0  0  0  0  0  0  0  0
   -5.8380   -0.6310   -1.0950 O   0  0  0  0  0  0  0  0  0  0  0  0
   -5.1160   -0.5020    1.0810 N   0  0  0  0  0  0  0  0  0  0  0  0
   -4.0680   -0.4990    2.0770 C   0  0  0  0  0  0  0  0  0  0  0  0
   -4.6560   -0.4750    3.4780 C   0  0  0  0  0  0  0  0  0  0  0  0
   -5.5740    0.7230    3.5690 C   0  0  0  0  0  0  0  0  0  0  0  0
   -6.6590    0.7380    2.5470 C   0  0  0  0  0  0  0  0  0  0  0  0
   -6.4740   -0.3530    1.5450 C   0  0  0  0  0  0  0  0  0  0  0  0
   -2.3720   -0.8380   -0.1580 N   0  0  0  0  0  0  0  0  0  0  0  0
   -1.3770   -0.9910   -1.0500 C   0  0  0  0  0  0  0  0  0  0  0  0
   -1.8790   -1.0470   -2.2580 N   0  0  0  0  0  0  0  0  0  0  0  0
   -0.9100   -1.0480   -3.2320 N   0  0  0  0  0  0  0  0  0  0  0  0
    0.2380   -0.9700   -2.7340 C   0  0  0  0  0  0  0  0  0  0  0  0
    1.1940   -0.9510   -3.8320 N   0  0  0  0  0  0  0  0  0  0  0  0
    2.3970   -0.2800   -3.6600 C   0  0  0  0  0  0  0  0  0  0  0  0
    2.3580    0.3070   -2.5100 O   0  0  0  0  0  0  0  0  0  0  0  0
    3.4950   -0.2350   -4.6020 C   0  0  0  0  0  0  0  0  0  0  0  0
    4.4200    0.8690   -4.0540 C   0  0  0  0  0  0  0  0  0  0  0  0
    5.5350    1.0420   -4.9090 N   0  0  0  0  0  0  0  0  0  0  0  0
    0.0830   -1.1700   -1.3120 C   0  0  1  0  0  0  0  0  0  0  0  0
    0.8500   -0.5400   -0.3700 O   0  0  0  0  0  0  0  0  0  0  0  0
    1.6570   -1.2080    0.5210 C   0  0  0  0  0  0  0  0  0  0  0  0
    1.6800   -2.4500    0.4450 O   0  0  0  0  0  0  0  0  0  0  0  0
    2.4560   -0.5090    1.5150 C   0  0  0  0  0  0  0  0  0  0  0  0
    3.2320   -1.1380    2.3640 C   0  0  0  0  0  0  0  0  0  0  0  0
    4.0320   -0.4140    3.3640 C   0  0  0  0  0  0  0  0  0  0  0  0
    4.8090    0.7360    2.8740 C   0  0  0  0  0  0  0  0  0  0  0  0
    6.0630    1.1580    3.0440 C   0  0  0  0  0  0  0  0  0  0  0  0
    6.2540    2.3980    2.2850 C   0  0  0  0  0  0  0  0  0  0  0  0
    4.9370    2.6670    1.6340 C   0  0  0  0  0  0  0  0  0  0  0  0
    4.1440    1.7050    1.9890 C   0  0  0  0  0  0  0  0  0  0  0  0
    2.4340    1.2810    1.6300 S   0  0  0  0  0  0  0  0  0  0  0  0
    1.5610    1.7170    2.8020 O   0  0  0  0  0  0  0  0  0  0  0  0
  1  2  1  0
  2  3  2  0
  2 14  1  0
  3  4  1  0
  3 12  1  0
  4  5  2  0
  4  6  1  0
  6  7  1  0
  6 11  1  0
  7  8  1  0
  8  9  1  0
  9 10  1  0
 10 11  1  0
 12 13  2  0
 13 14  1  0
 13 23  1  0
 14 15  1  0
 15 16  2  0
 16 17  1  0
 16 23  1  0
 17 18  1  0
 18 19  2  0
 18 20  1  0
 20 21  1  0
 21 22  1  0
 23 24  1  1
 24 25  1  0
 25 26  2  0
 25 27  1  0
 27 28  2  0
 35 27  1  1
 28 29  1  0
 29 30  1  0
 30 31  2  0
 30 34  1  0
 31 32  1  0
 32 33  1  0
 33 34  2  0
 34 35  1  0
 35 36  2  0
M  END
