
     RDKit          3D

 37 42  0  0  0  0  0  0  0  0999 V2000
   -6.7640   -1.8010    0.3070 O   0  0  0  0  0  0  0  0  0  0  0  0
   -6.3680   -0.5980   -0.0540 C   0  0  0  0  0  0  0  0  0  0  0  0
   -4.9840   -0.3540    0.1950 C   0  0  0  0  0  0  0  0  0  0  0  0
   -4.2720    0.7640   -0.1630 C   0  0  0  0  0  0  0  0  0  0  0  0
   -2.9170    0.8920    0.1700 C   0  0  0  0  0  0  0  0  0  0  0  0
   -2.2200   -0.0710    0.8600 C   0  0  0  0  0  0  0  0  0  0  0  0
   -0.9840   -0.2010    1.2880 O   0  0  0  0  0  0  0  0  0  0  0  0
   -0.7900   -1.3250    1.9120 C   0  0  0  0  0  0  0  0  0  0  0  0
    0.4890   -1.8130    2.5330 C   0  0  0  0  0  0  0  0  0  0  0  0
    1.4700   -0.7880    2.6130 N   0  0  0  0  0  0  0  0  0  0  0  0
    2.3990   -0.5670    1.4970 C   0  0  0  0  0  0  0  0  0  0  0  0
    3.2210    0.3370    1.7180 O   0  0  0  0  0  0  0  0  0  0  0  0
    2.3070   -1.3490    0.3070 C   0  0  0  0  0  0  0  0  0  0  0  0
    2.9500   -1.4220   -0.7650 C   0  0  0  0  0  0  0  0  0  0  0  0
    4.0890   -0.7810   -1.3330 C   0  0  0  0  0  0  0  0  0  0  0  0
    4.3000   -0.8780   -2.7460 C   0  0  0  0  0  0  0  0  0  0  0  0
    5.3990   -0.3450   -3.3520 C   0  0  0  0  0  0  0  0  0  0  0  0
    6.3670    0.3170   -2.6360 C   0  0  0  0  0  0  0  0  0  0  0  0
    6.2060    0.4320   -1.2810 C   0  0  0  0  0  0  0  0  0  0  0  0
    5.0790   -0.1160   -0.6570 C   0  0  0  0  0  0  0  0  0  0  0  0
    7.0580    1.0530   -0.3940 O   0  0  0  0  0  0  0  0  0  0  0  0
    8.4260    1.4380   -0.4730 C   0  0  0  0  0  0  0  0  0  0  0  0
    9.0790    0.7990   -1.6820 C   0  0  0  0  0  0  0  0  0  0  0  0
    8.5760    1.4400   -2.9570 C   0  0  0  0  0  0  0  0  0  0  0  0
    7.4010    0.7850   -3.4360 O   0  0  0  0  0  0  0  0  0  0  0  0
    1.6130    0.0860    3.7550 C   0  0  1  0  0  0  0  0  0  0  0  0
    0.3130    0.5940    4.3320 C   0  0  0  0  0  0  0  0  0  0  0  0
    1.1770   -0.3330    5.1190 C   0  0  0  0  0  0  0  0  0  0  0  0
   -1.9990   -1.9890    1.8930 C   0  0  0  0  0  0  0  0  0  0  0  0
   -2.9190   -1.1970    1.2240 C   0  0  0  0  0  0  0  0  0  0  0  0
   -4.2430   -1.3340    0.9060 C   0  0  0  0  0  0  0  0  0  0  0  0
   -7.3200    0.2440   -0.6110 N   0  0  0  0  0  0  0  0  0  0  0  0
   -8.6840   -0.3940   -0.7370 C   0  0  0  0  0  0  0  0  0  0  0  0
   -9.3140    0.0950   -2.0000 C   0  0  0  0  0  0  0  0  0  0  0  0
   -8.0420    0.3650   -3.2950 S   0  0  0  0  0  0  0  0  0  0  0  0
   -6.9140    1.6320   -2.5560 C   0  0  0  0  0  0  0  0  0  0  0  0
   -7.2680    1.5920   -1.0650 C   0  0  0  0  0  0  0  0  0  0  0  0
  1  2  2  0
  2  3  1  0
  2 32  1  0
  3  4  2  0
  3 31  1  0
  4  5  1  0
  5  6  2  0
  6  7  1  0
  6 30  1  0
  7  8  1  0
  8  9  1  0
  8 29  2  0
  9 10  1  0
 10 11  1  0
 26 10  1  6
 11 12  2  0
 11 13  1  0
 13 14  2  3
 14 15  1  0
 15 16  2  0
 15 20  1  0
 16 17  1  0
 17 18  2  0
 18 19  1  0
 18 25  1  0
 19 20  2  0
 19 21  1  0
 21 22  1  0
 22 23  1  0
 23 24  1  0
 24 25  1  0
 26 27  1  0
 26 28  1  0
 27 28  1  0
 29 30  1  0
 30 31  2  0
 32 33  1  0
 32 37  1  0
 33 34  1  0
 34 35  1  0
 35 36  1  0
 36 37  1  0
M  END
