
     RDKit          3D

 37 42  0  0  0  0  0  0  0  0999 V2000
    1.6150   -0.3110   -4.8590 C   0  0  0  0  0  0  0  0  0  0  0  0
    1.6340   -0.1350   -3.4680 O   0  0  0  0  0  0  0  0  0  0  0  0
    0.5800   -0.6080   -2.6910 C   0  0  0  0  0  0  0  0  0  0  0  0
   -0.4890   -1.2460   -3.2230 C   0  0  0  0  0  0  0  0  0  0  0  0
   -1.5010   -1.6900   -2.4010 C   0  0  0  0  0  0  0  0  0  0  0  0
   -1.5210   -1.5340   -1.0320 C   0  0  0  0  0  0  0  0  0  0  0  0
   -2.6520   -2.0340   -0.1810 C   0  0  0  0  0  0  0  0  0  0  0  0
   -3.6830   -1.1220    0.0600 N   0  0  0  0  0  0  0  0  0  0  0  0
   -4.6970   -1.0010   -0.8120 C   0  0  0  0  0  0  0  0  0  0  0  0
   -4.7220   -1.7160   -1.8250 O   0  0  0  0  0  0  0  0  0  0  0  0
   -5.7490   -0.1100   -0.6620 C   0  0  0  0  0  0  0  0  0  0  0  0
   -5.7750    0.7070    0.4450 C   0  0  0  0  0  0  0  0  0  0  0  0
   -6.8610    1.6950    0.6830 C   0  0  0  0  0  0  0  0  0  0  0  0
   -4.7510    0.5880    1.3360 C   0  0  0  0  0  0  0  0  0  0  0  0
   -4.7460    1.3820    2.4800 C   0  0  0  0  0  0  0  0  0  0  0  0
   -3.7620    1.3120    3.4380 C   0  0  0  0  0  0  0  0  0  0  0  0
   -2.7430    0.4070    3.2380 C   0  0  0  0  0  0  0  0  0  0  0  0
   -2.7230   -0.4000    2.1010 C   0  0  0  0  0  0  0  0  0  0  0  0
   -3.7030   -0.3250    1.1480 C   0  0  0  0  0  0  0  0  0  0  0  0
   -0.4330   -0.8860   -0.4960 C   0  0  0  0  0  0  0  0  0  0  0  0
    0.6130   -0.4230   -1.3050 C   0  0  0  0  0  0  0  0  0  0  0  0
    1.7480    0.2250   -0.7710 N   0  0  0  0  0  0  0  0  0  0  0  0
    1.9160    1.6300   -0.8890 C   0  0  0  0  0  0  0  0  0  0  0  0
    1.0690    2.3660   -1.4650 O   0  0  0  0  0  0  0  0  0  0  0  0
    3.1240    2.2840   -0.3200 C   0  0  0  0  0  0  0  0  0  0  0  0
    3.7140    3.9180   -0.2430 S   0  0  0  0  0  0  0  0  0  0  0  0
    5.2770    3.6000    0.6650 C   0  0  0  0  0  0  0  0  0  0  0  0
    5.1570    2.2200    0.8070 C   0  0  0  0  0  0  0  0  0  0  0  0
    6.1390    1.4420    1.4630 C   0  0  0  0  0  0  0  0  0  0  0  0
    6.0090    0.0770    1.5960 C   0  0  0  0  0  0  0  0  0  0  0  0
    4.9160   -0.5550    1.0900 C   0  0  0  0  0  0  0  0  0  0  0  0
    4.7790   -1.9300    1.2210 O   0  0  0  0  0  0  0  0  0  0  0  0
    5.7490   -2.7100    1.8690 C   0  0  0  0  0  0  0  0  0  0  0  0
    3.9620    0.2180    0.4500 C   0  0  0  0  0  0  0  0  0  0  0  0
    4.1100    1.6020    0.3240 C   0  0  0  0  0  0  0  0  0  0  0  0
    2.7990   -0.4650   -0.0880 C   0  0  0  0  0  0  0  0  0  0  0  0
    2.6620   -1.7100    0.0230 O   0  0  0  0  0  0  0  0  0  0  0  0
  1  2  1  0
  2  3  1  0
  3  4  2  0
  3 21  1  0
  4  5  1  0
  5  6  2  0
  6  7  1  0
  6 20  1  0
  7  8  1  0
  8  9  1  0
  8 19  1  0
  9 10  2  0
  9 11  1  0
 11 12  2  0
 12 13  1  0
 12 14  1  0
 14 15  2  0
 14 19  1  0
 15 16  1  0
 16 17  2  0
 17 18  1  0
 18 19  2  0
 20 21  2  0
 21 22  1  0
 22 23  1  0
 22 36  1  0
 23 24  2  0
 23 25  1  0
 25 26  1  0
 25 35  2  0
 26 27  1  0
 27 28  2  0
 28 29  1  0
 28 35  1  0
 29 30  2  0
 30 31  1  0
 31 32  1  0
 31 34  2  0
 32 33  1  0
 34 35  1  0
 34 36  1  0
 36 37  2  0
M  END
