
     RDKit          3D

 37 42  0  0  0  0  0  0  0  0999 V2000
   -5.7150   -0.7010    0.7940 C   0  0  0  0  0  0  0  0  0  0  0  0
   -4.9500    0.3870    0.1160 C   0  0  1  0  0  0  0  0  0  0  0  0
   -3.4880    0.0570    0.0690 C   0  0  0  0  0  0  0  0  0  0  0  0
   -2.9410   -0.0990    1.4580 C   0  0  0  0  0  0  0  0  0  0  0  0
   -1.4610   -0.4330    1.4430 C   0  0  0  0  0  0  0  0  0  0  0  0
   -0.9630   -0.5750    2.7570 O   0  0  0  0  0  0  0  0  0  0  0  0
    0.4050   -0.8870    2.9040 C   0  0  0  0  0  0  0  0  0  0  0  0
    0.9500   -1.0370    4.1630 C   0  0  0  0  0  0  0  0  0  0  0  0
    2.2880   -1.3410    4.2850 C   0  0  0  0  0  0  0  0  0  0  0  0
    3.0950   -1.4980    3.1820 C   0  0  0  0  0  0  0  0  0  0  0  0
    2.5810   -1.3540    1.8830 C   0  0  0  0  0  0  0  0  0  0  0  0
    3.3890   -1.5220    0.7990 N   0  0  0  0  0  0  0  0  0  0  0  0
    4.1330   -1.0230   -0.0100 C   0  0  0  0  0  0  0  0  0  0  0  0
    4.7150   -1.8580   -1.0000 C   0  0  0  0  0  0  0  0  0  0  0  0
    4.3900   -3.1960   -0.9690 C   0  0  0  0  0  0  0  0  0  0  0  0
    4.9440   -4.0450   -1.9260 C   0  0  0  0  0  0  0  0  0  0  0  0
    5.7960   -3.5240   -2.8710 C   0  0  0  0  0  0  0  0  0  0  0  0
    6.1050   -2.1810   -2.8800 C   0  0  0  0  0  0  0  0  0  0  0  0
    5.5560   -1.3200   -1.9260 C   0  0  0  0  0  0  0  0  0  0  0  0
    5.8520   -0.0480   -1.9370 O   0  0  0  0  0  0  0  0  0  0  0  0
    5.3550    0.7980   -1.0540 C   0  0  0  0  0  0  0  0  0  0  0  0
    5.6990    2.1300   -1.1110 C   0  0  0  0  0  0  0  0  0  0  0  0
    5.1760    3.0030   -0.1860 C   0  0  0  0  0  0  0  0  0  0  0  0
    4.3170    2.5750    0.7940 C   0  0  0  0  0  0  0  0  0  0  0  0
    3.9830    1.2230    0.8330 C   0  0  0  0  0  0  0  0  0  0  0  0
    4.4830    0.3060   -0.0760 C   0  0  0  0  0  0  0  0  0  0  0  0
    5.6930    4.2760   -0.4830 O   0  0  0  0  0  0  0  0  0  0  0  0
    6.8700    4.0400   -1.2460 C   0  0  0  0  0  0  0  0  0  0  0  0
    6.5210    2.8580   -1.9580 O   0  0  0  0  0  0  0  0  0  0  0  0
    1.2190   -1.0460    1.8190 C   0  0  0  0  0  0  0  0  0  0  0  0
   -5.5180    0.6620   -1.2180 C   0  0  0  0  0  0  0  0  0  0  0  0
   -4.7720    0.3430   -2.2080 O   0  0  0  0  0  0  0  0  0  0  0  0
   -6.7940    1.2350   -1.4500 N   0  0  0  0  0  0  0  0  0  0  0  0
   -7.3670    1.4890   -2.7430 C   0  0  0  0  0  0  0  0  0  0  0  0
   -8.7100    0.7560   -2.8050 C   0  0  0  0  0  0  0  0  0  0  0  0
   -9.2660    0.9720   -1.0670 S   0  0  0  0  0  0  0  0  0  0  0  0
   -7.6990    1.6570   -0.3960 C   0  0  0  0  0  0  0  0  0  0  0  0
  2  1  1  6
  2  3  1  0
  2 31  1  0
  3  4  1  0
  4  5  1  0
  5  6  1  0
  6  7  1  0
  7  8  2  0
  7 30  1  0
  8  9  1  0
  9 10  2  0
 10 11  1  0
 11 12  1  0
 11 30  2  0
 12 13  2  3
 13 14  1  0
 13 26  1  0
 14 15  2  0
 14 19  1  0
 15 16  1  0
 16 17  2  0
 17 18  1  0
 18 19  2  0
 19 20  1  0
 20 21  1  0
 21 22  2  0
 21 26  1  0
 22 23  1  0
 22 29  1  0
 23 24  2  0
 23 27  1  0
 24 25  1  0
 25 26  2  0
 27 28  1  0
 28 29  1  0
 31 32  2  0
 31 33  1  0
 33 34  1  0
 33 37  1  0
 34 35  1  0
 35 36  1  0
 36 37  1  0
M  END
