
     RDKit          3D

 37 41  0  0  0  0  0  0  0  0999 V2000
   -7.8860   -0.5830   -2.1440 C   0  0  0  0  0  0  0  0  0  0  0  0
   -6.7760   -0.0350   -1.3540 C   0  0  0  0  0  0  0  0  0  0  0  0
   -6.3740    1.3030   -1.4540 C   0  0  0  0  0  0  0  0  0  0  0  0
   -5.3380    1.7800   -0.7080 C   0  0  0  0  0  0  0  0  0  0  0  0
   -4.6730    0.9060    0.1700 C   0  0  0  0  0  0  0  0  0  0  0  0
   -5.0440   -0.3890    0.2880 C   0  0  0  0  0  0  0  0  0  0  0  0
   -6.1100   -0.8650   -0.4870 C   0  0  0  0  0  0  0  0  0  0  0  0
   -6.4080   -2.2970   -0.2800 C   0  0  0  0  0  0  0  0  0  0  0  0
   -6.5330   -2.5420    1.1760 C   0  0  0  0  0  0  0  0  0  0  0  0
   -5.5300   -1.9790    2.0840 C   0  0  0  0  0  0  0  0  0  0  0  0
   -4.3760   -1.2630    1.2920 C   0  0  0  0  0  0  0  0  0  0  0  0
   -3.5580    1.3970    0.9290 N   0  0  0  0  0  0  0  0  0  0  0  0
   -2.3960    0.6330    1.0350 C   0  0  0  0  0  0  0  0  0  0  0  0
   -2.1340   -0.3080    0.2920 O   0  0  0  0  0  0  0  0  0  0  0  0
   -1.4100    0.9660    2.1020 C   0  0  0  0  0  0  0  0  0  0  0  0
   -0.2860    0.1360    2.1020 O   0  0  0  0  0  0  0  0  0  0  0  0
    0.5940    0.0030    1.0420 C   0  0  0  0  0  0  0  0  0  0  0  0
    0.4010    0.6490    0.0060 O   0  0  0  0  0  0  0  0  0  0  0  0
    1.7370   -0.8810    1.1280 C   0  0  0  0  0  0  0  0  0  0  0  0
    2.1560   -1.8620    2.5060 S   0  0  0  0  0  0  0  0  0  0  0  0
    3.6610   -2.6080    1.7660 C   0  0  0  0  0  0  0  0  0  0  0  0
    3.6690   -2.0170    0.5410 C   0  0  0  0  0  0  0  0  0  0  0  0
    2.7240   -1.1540    0.1980 C   0  0  0  0  0  0  0  0  0  0  0  0
    2.6080   -0.4600   -1.1560 C   0  0  0  0  0  0  0  0  0  0  0  0
    3.6760   -0.7480   -1.9980 O   0  0  0  0  0  0  0  0  0  0  0  0
    4.9570   -0.3470   -1.6970 C   0  0  0  0  0  0  0  0  0  0  0  0
    5.2750    0.3710   -0.5900 C   0  0  0  0  0  0  0  0  0  0  0  0
    6.5750    0.7710   -0.2920 C   0  0  0  0  0  0  0  0  0  0  0  0
    7.5850    0.4280   -1.1500 C   0  0  0  0  0  0  0  0  0  0  0  0
    8.9230    0.8090   -0.8950 N   0  0  0  0  0  0  0  0  0  0  0  0
    9.2210    1.5700    0.2870 C   0  0  0  0  0  0  0  0  0  0  0  0
   10.0130    0.4590   -1.7860 C   0  0  0  0  0  0  0  0  0  0  0  0
    7.2950   -0.3110   -2.3010 C   0  0  0  0  0  0  0  0  0  0  0  0
    5.9970   -0.6910   -2.5650 C   0  0  0  0  0  0  0  0  0  0  0  0
   -3.6940    2.7510    1.4840 C   0  0  0  0  0  0  0  0  0  0  0  0
   -4.3830    3.6730    0.5160 C   0  0  0  0  0  0  0  0  0  0  0  0
   -4.8240    3.0590   -0.6840 O   0  0  0  0  0  0  0  0  0  0  0  0
  1  2  1  0
  2  3  2  0
  2  7  1  0
  3  4  1  0
  4  5  2  0
  4 37  1  0
  5  6  1  0
  5 12  1  0
  6  7  2  0
  6 11  1  0
  7  8  1  0
  8  9  1  0
  9 10  1  0
 10 11  1  0
 12 13  1  0
 12 35  1  0
 13 14  2  0
 13 15  1  0
 15 16  1  0
 16 17  1  0
 17 18  2  0
 17 19  1  0
 19 20  1  0
 19 23  2  0
 20 21  1  0
 21 22  2  0
 22 23  1  0
 23 24  1  0
 24 25  1  0
 25 26  1  0
 26 27  2  0
 26 34  1  0
 27 28  1  0
 28 29  2  0
 29 30  1  0
 29 33  1  0
 30 31  1  0
 30 32  1  0
 33 34  2  0
 35 36  1  0
 36 37  1  0
M  END
