
     RDKit          3D

 37 41  0  0  0  0  0  0  0  0999 V2000
    7.7610    1.0700    1.5640 C   0  0  0  0  0  0  0  0  0  0  0  0
    6.4450    0.6850    1.9030 O   0  0  0  0  0  0  0  0  0  0  0  0
    5.8550   -0.4700    1.3760 C   0  0  0  0  0  0  0  0  0  0  0  0
    6.5740   -1.1340    0.5880 O   0  0  0  0  0  0  0  0  0  0  0  0
    4.4670   -0.8590    1.7440 C   0  0  2  0  0  0  0  0  0  0  0  0
    4.1430   -2.1010    0.9100 C   0  0  0  0  0  0  0  0  0  0  0  0
    3.6830   -1.4400   -0.3490 C   0  0  0  0  0  0  0  0  0  0  0  0
    3.9020   -1.8850   -1.5030 O   0  0  0  0  0  0  0  0  0  0  0  0
    2.9780   -0.2550    0.0460 N   0  0  0  0  0  0  0  0  0  0  0  0
    1.9790    0.3580   -0.7630 C   0  0  0  0  0  0  0  0  0  0  0  0
    2.3320    1.1250   -1.8520 C   0  0  0  0  0  0  0  0  0  0  0  0
    1.3540    1.6840   -2.6100 C   0  0  0  0  0  0  0  0  0  0  0  0
    0.0250    1.4910   -2.3010 C   0  0  0  0  0  0  0  0  0  0  0  0
   -0.9650    2.1310   -3.1880 C   0  0  0  0  0  0  0  0  0  0  0  0
   -0.3770    0.7190   -1.2040 C   0  0  0  0  0  0  0  0  0  0  0  0
   -1.7770    0.5850   -0.9940 N   0  0  0  0  0  0  0  0  0  0  0  0
   -2.4770   -0.5680   -1.4270 C   0  0  0  0  0  0  0  0  0  0  0  0
   -2.6410   -1.6000   -0.3600 C   0  0  0  0  0  0  0  0  0  0  0  0
   -2.1800   -1.4560    1.3160 S   0  0  0  0  0  0  0  0  0  0  0  0
   -2.7940   -3.0750    1.8210 C   0  0  0  0  0  0  0  0  0  0  0  0
   -2.7180   -3.6320    3.1990 C   0  0  0  0  0  0  0  0  0  0  0  0
   -3.3050   -3.5860    0.6380 C   0  0  0  0  0  0  0  0  0  0  0  0
   -3.2210   -2.8310   -0.4570 C   0  0  0  0  0  0  0  0  0  0  0  0
   -3.7620   -3.4250   -1.7160 C   0  0  0  0  0  0  0  0  0  0  0  0
   -4.2940   -4.6120   -1.7830 C   0  0  0  0  0  0  0  0  0  0  0  0
   -4.4350   -5.5220   -0.6530 C   0  0  0  0  0  0  0  0  0  0  0  0
   -3.9380   -4.9290    0.5830 C   0  0  0  0  0  0  0  0  0  0  0  0
   -4.0650   -5.6150    1.6520 O   0  0  0  0  0  0  0  0  0  0  0  0
   -2.5170    1.6580   -0.3860 C   0  0  0  0  0  0  0  0  0  0  0  0
   -3.7750    1.5050   -0.2180 O   0  0  0  0  0  0  0  0  0  0  0  0
   -1.9160    2.9010    0.0470 C   0  0  0  0  0  0  0  0  0  0  0  0
   -2.6460    3.8310    0.5880 C   0  0  0  0  0  0  0  0  0  0  0  0
   -2.1680    5.1390    1.0710 C   0  0  2  0  0  0  0  0  0  0  0  0
   -1.7560    6.0900   -0.0690 C   0  0  0  0  0  0  0  0  0  0  0  0
   -0.7680    5.5740    0.9980 C   0  0  0  0  0  0  0  0  0  0  0  0
    0.6240    0.1700   -0.4590 C   0  0  0  0  0  0  0  0  0  0  0  0
    3.4380    0.1760    1.3290 C   0  0  0  0  0  0  0  0  0  0  0  0
  1  2  1  0
  2  3  1  0
  3  4  2  0
  5  3  1  6
  5  6  1  0
  5 37  1  0
  6  7  1  0
  7  8  2  0
  7  9  1  0
  9 10  1  0
  9 37  1  0
 10 11  2  0
 10 36  1  0
 11 12  1  0
 12 13  2  0
 13 14  1  0
 13 15  1  0
 15 16  1  0
 15 36  2  0
 16 17  1  0
 16 29  1  0
 17 18  1  0
 18 19  1  0
 18 23  2  0
 19 20  1  0
 20 21  1  0
 20 22  2  0
 22 23  1  0
 22 27  1  0
 23 24  1  0
 24 25  2  0
 25 26  1  0
 26 27  1  0
 27 28  2  0
 29 30  2  0
 29 31  1  0
 31 32  2  3
 33 32  1  6
 33 34  1  0
 33 35  1  0
 34 35  1  0
M  END
