
     RDKit          3D

 37 40  0  0  0  0  0  0  0  0999 V2000
   10.5550    1.2690   -1.3930 N   0  0  0  0  0  0  0  0  0  0  0  0
    9.3600    0.7530   -0.9180 O   0  0  0  0  0  0  0  0  0  0  0  0
    9.3410   -0.3560   -0.0960 C   0  0  0  0  0  0  0  0  0  0  0  0
   10.4320   -0.8750    0.2060 O   0  0  0  0  0  0  0  0  0  0  0  0
    8.0900   -0.9000    0.4030 C   0  0  0  0  0  0  0  0  0  0  0  0
    7.9280   -1.9920    1.2250 C   0  0  0  0  0  0  0  0  0  0  0  0
    6.5720   -2.1100    1.4160 C   0  0  0  0  0  0  0  0  0  0  0  0
    5.9540   -1.0920    0.7100 C   0  0  0  0  0  0  0  0  0  0  0  0
    4.4960   -0.8380    0.6330 C   0  0  0  0  0  0  0  0  0  0  0  0
    4.2910    0.2740   -0.1490 O   0  0  0  0  0  0  0  0  0  0  0  0
    2.9570    0.6260   -0.3080 C   0  0  2  0  0  0  0  0  0  0  0  0
    2.6650    0.4590   -1.7940 C   0  0  0  0  0  0  0  0  0  0  0  0
    1.2340    0.8050   -2.1300 C   0  0  0  0  0  0  0  0  0  0  0  0
    0.2950   -0.0330   -1.4180 N   0  0  0  0  0  0  0  0  0  0  0  0
   -1.1130    0.0620   -1.5390 C   0  0  0  0  0  0  0  0  0  0  0  0
   -1.5920    0.9190   -2.3060 O   0  0  0  0  0  0  0  0  0  0  0  0
   -1.9960   -0.7950   -0.8070 N   0  0  0  0  0  0  0  0  0  0  0  0
   -3.4640   -0.6950   -0.9380 C   0  0  1  0  0  0  0  0  0  0  0  0
   -3.8920   -1.9710   -1.4900 C   0  0  0  0  0  0  0  0  0  0  0  0
   -4.5330   -3.0180   -1.1150 N   0  0  0  0  0  0  0  0  0  0  0  0
   -5.0910   -3.2510    0.1480 C   0  0  0  0  0  0  0  0  0  0  0  0
   -4.9260   -4.6990    0.8350 S   0  0  0  0  0  0  0  0  0  0  0  0
   -6.0150   -2.0310    1.1060 S   0  0  0  0  0  0  0  0  0  0  0  0
   -5.5200   -0.3790    0.5050 C   0  0  2  0  0  0  0  0  0  0  0  0
   -6.0470    0.6080    1.5350 C   0  0  0  0  0  0  0  0  0  0  0  0
   -7.4210    0.0550    1.9360 C   0  0  0  0  0  0  0  0  0  0  0  0
   -8.1130   -0.2610    0.7930 O   0  0  0  0  0  0  0  0  0  0  0  0
   -7.6610    0.3660   -0.3410 C   0  0  0  0  0  0  0  0  0  0  0  0
   -6.2750   -0.1130   -0.7730 C   0  0  0  0  0  0  0  0  0  0  0  0
   -4.0380   -0.2770    0.3640 C   0  0  2  0  0  0  0  0  0  0  0  0
   -3.7020    1.1390    0.5920 N   0  0  0  0  0  0  0  0  0  0  0  0
    2.6810    2.0200    0.0660 C   0  0  0  0  0  0  0  0  0  0  0  0
    3.3500    3.1270   -0.2290 N   0  0  0  0  0  0  0  0  0  0  0  0
    2.7760    4.1920    0.2990 N   0  0  0  0  0  0  0  0  0  0  0  0
    1.7080    3.7440    0.9490 N   0  0  0  0  0  0  0  0  0  0  0  0
    1.6360    2.4140    0.8150 N   0  0  0  0  0  0  0  0  0  0  0  0
    6.9070   -0.4120    0.1330 O   0  0  0  0  0  0  0  0  0  0  0  0
  1  2  1  0
  2  3  1  0
  3  4  2  0
  3  5  1  0
  5  6  2  0
  5 37  1  0
  6  7  1  0
  7  8  2  0
  8  9  1  0
  8 37  1  0
  9 10  1  0
 10 11  1  0
 11 12  1  6
 11 32  1  0
 12 13  1  0
 13 14  1  0
 14 15  1  0
 15 16  2  0
 15 17  1  0
 18 17  1  1
 18 19  1  0
 18 30  1  0
 19 20  2  0
 20 21  1  0
 21 22  2  0
 21 23  1  0
 23 24  1  0
 24 25  1  1
 24 29  1  0
 24 30  1  0
 25 26  1  0
 26 27  1  0
 27 28  1  0
 28 29  1  0
 30 31  1  6
 32 33  2  0
 32 36  1  0
 33 34  1  0
 34 35  2  0
 35 36  1  0
M  CHG  1  31   1
M  END
