
     RDKit          3D

 37 40  0  0  0  0  0  0  0  0999 V2000
    4.2080    2.3120   -0.6690 C   0  0  0  0  0  0  0  0  0  0  0  0
    3.8740    1.2210   -1.7340 C   0  0  2  0  0  0  0  0  0  0  0  0
    2.3030    0.5560   -1.3390 S   0  0  0  0  0  0  0  0  0  0  0  0
    2.1460   -0.4720    0.0610 C   0  0  0  0  0  0  0  0  0  0  0  0
    1.0100   -0.3840    0.7790 C   0  0  0  0  0  0  0  0  0  0  0  0
   -0.0180    0.5630    0.3470 C   0  0  0  0  0  0  0  0  0  0  0  0
    0.2540    1.8790    0.0490 C   0  0  0  0  0  0  0  0  0  0  0  0
   -0.7710    2.7200   -0.3570 C   0  0  0  0  0  0  0  0  0  0  0  0
   -2.0280    2.2970   -0.4710 N   0  0  0  0  0  0  0  0  0  0  0  0
   -2.3500    1.0220   -0.1950 C   0  0  0  0  0  0  0  0  0  0  0  0
   -3.6880    0.5830   -0.3070 N   0  0  0  0  0  0  0  0  0  0  0  0
   -4.2580    0.3450   -1.5990 C   0  0  0  0  0  0  0  0  0  0  0  0
   -4.8640   -1.0160   -1.6540 C   0  0  0  0  0  0  0  0  0  0  0  0
   -5.0740   -1.5830   -0.4720 O   0  0  0  0  0  0  0  0  0  0  0  0
   -5.3060   -0.9350    0.6700 C   0  0  2  0  0  0  0  0  0  0  0  0
   -6.7690   -0.6760    0.8700 C   0  0  0  0  0  0  0  0  0  0  0  0
   -7.3770    0.1420   -0.1570 N   0  0  0  0  0  0  0  0  0  0  0  0
   -9.0780    0.3920    0.1450 S   0  0  0  0  0  0  0  0  0  0  0  0
  -10.0520   -0.9390   -0.3280 N   0  0  0  0  0  0  0  0  0  0  0  0
   -9.6090    1.6600   -0.4800 O   0  0  0  0  0  0  0  0  0  0  0  0
   -4.5230    0.3410    0.8500 C   0  0  0  0  0  0  0  0  0  0  0  0
   -1.3280    0.1690    0.2140 C   0  0  0  0  0  0  0  0  0  0  0  0
    0.8450   -1.1660    1.9510 N   0  0  0  0  0  0  0  0  0  0  0  0
    1.8130   -2.0480    2.4280 N   0  0  0  0  0  0  0  0  0  0  0  0
    3.0280   -2.1690    1.6960 C   0  0  0  0  0  0  0  0  0  0  0  0
    3.9200   -2.9480    2.0920 O   0  0  0  0  0  0  0  0  0  0  0  0
    3.1440   -1.3690    0.5320 N   0  0  0  0  0  0  0  0  0  0  0  0
    5.0550    0.3510   -1.8240 C   0  0  0  0  0  0  0  0  0  0  0  0
    5.3450   -0.2410   -2.8760 O   0  0  0  0  0  0  0  0  0  0  0  0
    5.8890    0.1820   -0.6850 N   0  0  0  0  0  0  0  0  0  0  0  0
    7.0600   -0.6370   -0.7650 C   0  0  2  0  0  0  0  0  0  0  0  0
    7.1070   -1.6710    0.3410 C   0  0  0  0  0  0  0  0  0  0  0  0
    7.3990   -0.8290    1.5570 C   0  0  0  0  0  0  0  0  0  0  0  0
    7.0110   -0.9920    2.7310 O   0  0  0  0  0  0  0  0  0  0  0  0
    8.2410    0.2440    1.1010 N   0  0  0  0  0  0  0  0  0  0  0  0
    8.2580    0.1990   -0.3340 C   0  0  0  0  0  0  0  0  0  0  0  0
    9.0840    0.7350   -1.0760 O   0  0  0  0  0  0  0  0  0  0  0  0
  2  1  1  1
  2  3  1  0
  2 28  1  0
  3  4  1  0
  4  5  2  0
  4 27  1  0
  5  6  1  0
  5 23  1  0
  6  7  2  0
  6 22  1  0
  7  8  1  0
  8  9  2  0
  9 10  1  0
 10 11  1  0
 10 22  2  0
 11 12  1  0
 11 21  1  0
 12 13  1  0
 13 14  1  0
 14 15  1  0
 15 16  1  6
 15 21  1  0
 16 17  1  0
 17 18  1  0
 18 19  1  6
 18 20  2  0
 23 24  1  0
 24 25  1  0
 25 26  2  0
 25 27  1  0
 28 29  2  0
 28 30  1  0
 31 30  1  1
 31 32  1  0
 31 36  1  0
 32 33  1  0
 33 34  2  0
 33 35  1  0
 35 36  1  0
 36 37  2  0
M  CHG  1   9   1
M  END
