
     RDKit          3D

 37 42  0  0  0  0  0  0  0  0999 V2000
   -1.2870   -3.5590    2.1180 C   0  0  0  0  0  0  0  0  0  0  0  0
   -1.5900   -2.5920    1.1410 O   0  0  0  0  0  0  0  0  0  0  0  0
   -0.5860   -1.9670    0.4240 C   0  0  0  0  0  0  0  0  0  0  0  0
    0.7410   -2.2720    0.6440 C   0  0  0  0  0  0  0  0  0  0  0  0
    1.7220   -1.6420   -0.0740 C   0  0  0  0  0  0  0  0  0  0  0  0
    1.3430   -0.7080   -1.0100 C   0  0  0  0  0  0  0  0  0  0  0  0
    2.3940   -0.0560   -1.8150 C   0  0  0  0  0  0  0  0  0  0  0  0
    3.7010   -0.1300   -1.1850 N   0  0  0  0  0  0  0  0  0  0  0  0
    4.5150   -1.1960   -1.4700 C   0  0  0  0  0  0  0  0  0  0  0  0
    4.0490   -2.0680   -2.2800 O   0  0  0  0  0  0  0  0  0  0  0  0
    5.7540   -1.3270   -0.9230 C   0  0  0  0  0  0  0  0  0  0  0  0
    6.2120   -0.3630   -0.0550 C   0  0  0  0  0  0  0  0  0  0  0  0
    7.5580   -0.4520    0.5760 C   0  0  0  0  0  0  0  0  0  0  0  0
    5.4240    0.7230    0.2570 C   0  0  0  0  0  0  0  0  0  0  0  0
    5.8950    1.6860    1.1280 C   0  0  0  0  0  0  0  0  0  0  0  0
    5.0620    2.7530    1.4050 C   0  0  0  0  0  0  0  0  0  0  0  0
    3.8100    2.8620    0.8390 C   0  0  0  0  0  0  0  0  0  0  0  0
    3.3510    1.8960   -0.0310 C   0  0  0  0  0  0  0  0  0  0  0  0
    4.1550    0.8030   -0.3390 C   0  0  0  0  0  0  0  0  0  0  0  0
    0.0160   -0.3820   -1.2510 C   0  0  0  0  0  0  0  0  0  0  0  0
   -0.9800   -1.0120   -0.5320 C   0  0  0  0  0  0  0  0  0  0  0  0
   -2.3610   -0.7970   -0.6960 N   0  0  0  0  0  0  0  0  0  0  0  0
   -3.2040   -1.7120   -1.4170 C   0  0  0  0  0  0  0  0  0  0  0  0
   -2.7350   -2.7330   -1.9410 O   0  0  0  0  0  0  0  0  0  0  0  0
   -4.6380   -1.4410   -1.5350 C   0  0  0  0  0  0  0  0  0  0  0  0
   -5.9830   -2.2630   -2.2930 S   0  0  0  0  0  0  0  0  0  0  0  0
   -7.3270   -1.0580   -1.8240 C   0  0  0  0  0  0  0  0  0  0  0  0
   -6.5380   -0.1540   -1.1250 C   0  0  0  0  0  0  0  0  0  0  0  0
   -7.1060    1.0080   -0.5290 C   0  0  0  0  0  0  0  0  0  0  0  0
   -6.3600    1.9070    0.1630 C   0  0  0  0  0  0  0  0  0  0  0  0
   -5.0050    1.6940    0.2960 C   0  0  0  0  0  0  0  0  0  0  0  0
   -4.2450    2.6140    1.0020 O   0  0  0  0  0  0  0  0  0  0  0  0
   -4.8520    3.7510    1.5790 C   0  0  0  0  0  0  0  0  0  0  0  0
   -4.4590    0.5630   -0.2860 C   0  0  0  0  0  0  0  0  0  0  0  0
   -5.2540   -0.3410   -0.9900 C   0  0  0  0  0  0  0  0  0  0  0  0
   -3.0180    0.3210   -0.1490 C   0  0  0  0  0  0  0  0  0  0  0  0
   -2.3270    1.1710    0.5020 O   0  0  0  0  0  0  0  0  0  0  0  0
  1  2  1  0
  2  3  1  0
  3  4  2  0
  3 21  1  0
  4  5  1  0
  5  6  2  0
  6  7  1  0
  6 20  1  0
  7  8  1  0
  8  9  1  0
  8 19  1  0
  9 10  2  0
  9 11  1  0
 11 12  2  0
 12 13  1  0
 12 14  1  0
 14 15  2  0
 14 19  1  0
 15 16  1  0
 16 17  2  0
 17 18  1  0
 18 19  2  0
 20 21  2  0
 21 22  1  0
 22 23  1  0
 22 36  1  0
 23 24  2  0
 23 25  1  0
 25 26  1  0
 25 35  2  0
 26 27  1  0
 27 28  2  0
 28 29  1  0
 28 35  1  0
 29 30  2  0
 30 31  1  0
 31 32  1  0
 31 34  2  0
 32 33  1  0
 34 35  1  0
 34 36  1  0
 36 37  2  0
M  END
