
     RDKit          3D

 37 41  0  0  0  0  0  0  0  0999 V2000
    9.0500   -0.2560    1.0630 C   0  0  0  0  0  0  0  0  0  0  0  0
    7.6750   -0.6480    1.1360 O   0  0  0  0  0  0  0  0  0  0  0  0
    6.7080    0.1070    0.4970 C   0  0  0  0  0  0  0  0  0  0  0  0
    6.9600    1.1320   -0.1560 O   0  0  0  0  0  0  0  0  0  0  0  0
    5.2960   -0.3420    0.6040 C   0  0  2  0  0  0  0  0  0  0  0  0
    5.1100   -1.7340    0.0440 C   0  0  0  0  0  0  0  0  0  0  0  0
    3.6640   -1.7580   -0.3000 C   0  0  0  0  0  0  0  0  0  0  0  0
    2.9410   -2.7830   -0.3320 O   0  0  0  0  0  0  0  0  0  0  0  0
    3.3150   -0.4100   -0.5690 N   0  0  0  0  0  0  0  0  0  0  0  0
    2.0190   -0.0500   -1.0710 C   0  0  0  0  0  0  0  0  0  0  0  0
    1.8020    0.2170   -2.4040 C   0  0  0  0  0  0  0  0  0  0  0  0
    0.5790    0.5620   -2.9100 C   0  0  0  0  0  0  0  0  0  0  0  0
   -0.5230    0.6490   -2.0130 C   0  0  0  0  0  0  0  0  0  0  0  0
   -1.8100    1.0180   -2.6100 C   0  0  0  0  0  0  0  0  0  0  0  0
   -0.3570    0.3980   -0.7060 C   0  0  0  0  0  0  0  0  0  0  0  0
   -1.3820    0.4600    0.2690 N   0  0  0  0  0  0  0  0  0  0  0  0
   -1.7300   -0.6510    1.1020 C   0  0  0  0  0  0  0  0  0  0  0  0
   -2.8600   -1.4270    0.6100 C   0  0  0  0  0  0  0  0  0  0  0  0
   -3.8200   -1.1170   -0.8570 S   0  0  0  0  0  0  0  0  0  0  0  0
   -4.9260   -2.4870   -0.6590 C   0  0  0  0  0  0  0  0  0  0  0  0
   -6.0460   -2.8370   -1.5950 C   0  0  0  0  0  0  0  0  0  0  0  0
   -4.5020   -3.0980    0.5080 C   0  0  0  0  0  0  0  0  0  0  0  0
   -3.4540   -2.5430    1.1320 C   0  0  0  0  0  0  0  0  0  0  0  0
   -2.9940   -3.2040    2.3910 C   0  0  0  0  0  0  0  0  0  0  0  0
   -3.5750   -4.2760    2.8750 C   0  0  0  0  0  0  0  0  0  0  0  0
   -4.7290   -4.9740    2.2780 C   0  0  0  0  0  0  0  0  0  0  0  0
   -5.1680   -4.3130    1.0590 C   0  0  0  0  0  0  0  0  0  0  0  0
   -6.1650   -4.8190    0.4610 O   0  0  0  0  0  0  0  0  0  0  0  0
   -2.0020    1.7110    0.5140 C   0  0  0  0  0  0  0  0  0  0  0  0
   -3.0090    1.7490    1.2810 O   0  0  0  0  0  0  0  0  0  0  0  0
   -1.5740    2.9810   -0.0410 C   0  0  0  0  0  0  0  0  0  0  0  0
   -2.1590    4.1200    0.2070 C   0  0  0  0  0  0  0  0  0  0  0  0
   -1.6990    5.4030   -0.3750 C   0  0  2  0  0  0  0  0  0  0  0  0
   -0.2860    5.8130   -0.3190 C   0  0  0  0  0  0  0  0  0  0  0  0
   -1.2700    6.4870    0.6050 C   0  0  0  0  0  0  0  0  0  0  0  0
    0.9290    0.0460   -0.2450 C   0  0  0  0  0  0  0  0  0  0  0  0
    4.3840    0.4910   -0.2820 C   0  0  0  0  0  0  0  0  0  0  0  0
  1  2  1  0
  2  3  1  0
  3  4  2  0
  5  3  1  6
  5  6  1  0
  5 37  1  0
  6  7  1  0
  7  8  2  0
  7  9  1  0
  9 10  1  0
  9 37  1  0
 10 11  2  0
 10 36  1  0
 11 12  1  0
 12 13  2  0
 13 14  1  0
 13 15  1  0
 15 16  1  0
 15 36  2  0
 16 17  1  0
 16 29  1  0
 17 18  1  0
 18 19  1  0
 18 23  2  0
 19 20  1  0
 20 21  1  0
 20 22  2  0
 22 23  1  0
 22 27  1  0
 23 24  1  0
 24 25  2  0
 25 26  1  0
 26 27  1  0
 27 28  2  0
 29 30  2  0
 29 31  1  0
 31 32  2  3
 33 32  1  1
 33 34  1  0
 33 35  1  0
 34 35  1  0
M  END
