
     RDKit          3D

 37 41  0  0  0  0  0  0  0  0999 V2000
   -0.2410   -3.5240    3.1300 C   0  0  0  0  0  0  0  0  0  0  0  0
    0.3590   -2.5320    2.1840 C   0  0  0  0  0  0  0  0  0  0  0  0
    1.7120   -2.3190    2.3630 C   0  0  0  0  0  0  0  0  0  0  0  0
    2.3070   -1.4000    1.5370 C   0  0  0  0  0  0  0  0  0  0  0  0
    1.6260   -0.6920    0.5530 C   0  0  0  0  0  0  0  0  0  0  0  0
    2.4160    0.2090   -0.3220 C   0  0  0  0  0  0  0  0  0  0  0  0
    2.0100    0.4640   -1.4830 O   0  0  0  0  0  0  0  0  0  0  0  0
    3.6280    0.7770    0.1280 N   0  0  0  0  0  0  0  0  0  0  0  0
    4.4930    1.6070   -0.6200 C   0  0  0  0  0  0  0  0  0  0  0  0
    4.2470    2.1720   -1.8350 C   0  0  0  0  0  0  0  0  0  0  0  0
    5.1770    2.9300   -2.5380 C   0  0  0  0  0  0  0  0  0  0  0  0
    6.4280    3.1310   -1.9850 C   0  0  0  0  0  0  0  0  0  0  0  0
    6.7260    2.5760   -0.7470 C   0  0  0  0  0  0  0  0  0  0  0  0
    8.0980    2.7900   -0.1810 C   0  0  2  0  0  0  0  0  0  0  0  0
    9.0440    2.1020   -0.9500 F   0  0  0  0  0  0  0  0  0  0  0  0
    8.1030    2.1720    1.0650 F   0  0  0  0  0  0  0  0  0  0  0  0
    8.4160    4.1170   -0.1300 F   0  0  0  0  0  0  0  0  0  0  0  0
    5.7680    1.8380   -0.0970 C   0  0  0  0  0  0  0  0  0  0  0  0
    0.2810   -0.9150    0.3930 C   0  0  0  0  0  0  0  0  0  0  0  0
   -0.3640   -1.8560    1.2250 C   0  0  0  0  0  0  0  0  0  0  0  0
   -1.7070   -2.2400    0.9750 N   0  0  0  0  0  0  0  0  0  0  0  0
   -2.7100   -1.4680    0.3610 C   0  0  0  0  0  0  0  0  0  0  0  0
   -2.6700   -0.1780    0.1100 N   0  0  0  0  0  0  0  0  0  0  0  0
   -3.6970    0.5530   -0.3940 C   0  0  0  0  0  0  0  0  0  0  0  0
   -3.6220    1.9960   -0.5690 C   0  0  0  0  0  0  0  0  0  0  0  0
   -4.6670    2.6550   -1.1580 C   0  0  0  0  0  0  0  0  0  0  0  0
   -4.6050    4.0550   -1.2600 C   0  0  0  0  0  0  0  0  0  0  0  0
   -3.5110    4.7200   -0.7730 C   0  0  0  0  0  0  0  0  0  0  0  0
   -2.4860    4.0450   -0.1970 N   0  0  0  0  0  0  0  0  0  0  0  0
   -2.5400    2.6870   -0.0950 C   0  0  0  0  0  0  0  0  0  0  0  0
   -4.8520   -0.1030   -0.6630 N   0  0  0  0  0  0  0  0  0  0  0  0
   -4.9820   -1.4220   -0.4380 C   0  0  0  0  0  0  0  0  0  0  0  0
   -5.9900   -2.3330   -0.6100 N   0  0  0  0  0  0  0  0  0  0  0  0
   -5.6050   -3.5310   -0.2340 N   0  0  0  0  0  0  0  0  0  0  0  0
   -6.3770   -4.7660   -0.2610 C   0  0  0  0  0  0  0  0  0  0  0  0
   -4.3210   -3.4300    0.1990 C   0  0  0  0  0  0  0  0  0  0  0  0
   -3.9150   -2.1250    0.0790 C   0  0  0  0  0  0  0  0  0  0  0  0
  1  2  1  0
  2  3  2  0
  2 20  1  0
  3  4  1  0
  4  5  2  0
  5  6  1  0
  5 19  1  0
  6  7  2  0
  6  8  1  0
  8  9  1  0
  9 10  2  0
  9 18  1  0
 10 11  1  0
 11 12  2  0
 12 13  1  0
 13 14  1  0
 13 18  2  0
 14 15  1  6
 14 16  1  0
 14 17  1  0
 19 20  2  0
 20 21  1  0
 21 22  1  0
 22 23  2  0
 22 37  1  0
 23 24  1  0
 24 25  1  0
 24 31  2  0
 25 26  2  0
 25 30  1  0
 26 27  1  0
 27 28  2  0
 28 29  1  0
 29 30  2  0
 31 32  1  0
 32 33  2  0
 32 37  1  0
 33 34  1  0
 34 35  1  0
 34 36  1  0
 36 37  2  0
M  END
