
     RDKit          3D

 37 41  0  0  0  0  0  0  0  0999 V2000
   -7.5720    1.4480    0.4040 C   0  0  0  0  0  0  0  0  0  0  0  0
   -6.1110    1.0350    0.6290 C   0  0  0  0  0  0  0  0  0  0  0  0
   -5.9460   -0.4050    0.2420 C   0  0  0  0  0  0  0  0  0  0  0  0
   -4.3120   -1.0120    0.4830 S   0  0  0  0  0  0  0  0  0  0  0  0
   -3.0480   -0.4320   -0.5970 C   0  0  2  0  0  0  0  0  0  0  0  0
   -2.6330    0.9950   -0.4140 C   0  0  0  0  0  0  0  0  0  0  0  0
   -2.0340    1.3170    0.7410 O   0  0  0  0  0  0  0  0  0  0  0  0
   -2.7220    1.2320    1.8990 C   0  0  0  0  0  0  0  0  0  0  0  0
   -3.5330   -0.5950   -2.0220 C   0  0  0  0  0  0  0  0  0  0  0  0
   -4.5680    0.1010   -2.6650 C   0  0  0  0  0  0  0  0  0  0  0  0
   -4.9310   -0.2140   -3.9680 C   0  0  0  0  0  0  0  0  0  0  0  0
   -4.2310   -1.2310   -4.5860 C   0  0  0  0  0  0  0  0  0  0  0  0
   -3.2150   -1.9080   -3.9460 C   0  0  0  0  0  0  0  0  0  0  0  0
   -2.8520   -1.5860   -2.6330 C   0  0  0  0  0  0  0  0  0  0  0  0
   -1.8210   -2.0450   -1.7370 C   0  0  0  0  0  0  0  0  0  0  0  0
   -0.9920   -2.9750   -1.9860 O   0  0  0  0  0  0  0  0  0  0  0  0
   -1.8690   -1.3020   -0.5370 N   0  0  0  0  0  0  0  0  0  0  0  0
   -0.9220   -1.3920    0.5150 C   0  0  0  0  0  0  0  0  0  0  0  0
   -1.2540   -1.9180    1.7280 C   0  0  0  0  0  0  0  0  0  0  0  0
   -0.3580   -2.0210    2.7630 C   0  0  0  0  0  0  0  0  0  0  0  0
    0.9520   -1.5680    2.5700 C   0  0  0  0  0  0  0  0  0  0  0  0
    1.3180   -1.0320    1.3620 C   0  0  0  0  0  0  0  0  0  0  0  0
    2.6800   -0.5170    1.1100 C   0  0  0  0  0  0  0  0  0  0  0  0
    3.0590   -0.1580   -0.1070 C   0  0  0  0  0  0  0  0  0  0  0  0
    4.4210    0.3340   -0.3150 C   0  0  0  0  0  0  0  0  0  0  0  0
    5.3380    0.4450    0.6210 C   0  0  0  0  0  0  0  0  0  0  0  0
    5.0560    0.0600    2.0150 C   0  0  0  0  0  0  0  0  0  0  0  0
    3.6270   -0.2430    2.1790 C   0  0  0  0  0  0  0  0  0  0  0  0
    3.2050   -0.2580    3.3740 O   0  0  0  0  0  0  0  0  0  0  0  0
    6.6560    0.9260    0.3610 N   0  0  0  0  0  0  0  0  0  0  0  0
    7.7270    0.7120    1.3010 C   0  0  0  0  0  0  0  0  0  0  0  0
    8.7550   -0.2690    0.7220 C   0  0  0  0  0  0  0  0  0  0  0  0
    6.9390    1.6310   -0.8590 C   0  0  0  0  0  0  0  0  0  0  0  0
    6.0720    1.2210   -1.9050 O   0  0  0  0  0  0  0  0  0  0  0  0
    4.8030    0.7500   -1.6900 C   0  0  0  0  0  0  0  0  0  0  0  0
    3.9340    0.6460   -2.5880 O   0  0  0  0  0  0  0  0  0  0  0  0
    0.3720   -0.9510    0.3450 C   0  0  0  0  0  0  0  0  0  0  0  0
  1  2  1  0
  2  3  1  0
  3  4  1  0
  4  5  1  0
  5  6  1  1
  5  9  1  0
  5 17  1  0
  6  7  1  0
  7  8  1  0
  9 10  2  0
  9 14  1  0
 10 11  1  0
 11 12  2  0
 12 13  1  0
 13 14  2  0
 14 15  1  0
 15 16  2  0
 15 17  1  0
 17 18  1  0
 18 19  2  0
 18 37  1  0
 19 20  1  0
 20 21  2  0
 21 22  1  0
 22 23  1  0
 22 37  2  0
 23 24  2  0
 23 28  1  0
 24 25  1  0
 25 26  2  0
 25 35  1  0
 26 27  1  0
 26 30  1  0
 27 28  1  0
 28 29  2  0
 30 31  1  0
 30 33  1  0
 31 32  1  0
 33 34  1  0
 34 35  1  0
 35 36  2  0
M  END
