
     RDKit          3D

 37 42  0  0  0  0  0  0  0  0999 V2000
   -1.3010   -6.8380   -1.4010 C   0  0  0  0  0  0  0  0  0  0  0  0
   -0.3810   -5.7180   -1.0220 C   0  0  0  0  0  0  0  0  0  0  0  0
   -0.7290   -4.5040   -1.8930 C   0  0  0  0  0  0  0  0  0  0  0  0
    0.2300   -3.4250   -1.4580 C   0  0  0  0  0  0  0  0  0  0  0  0
    1.4190   -3.7670   -1.5480 O   0  0  0  0  0  0  0  0  0  0  0  0
   -0.2180   -2.1450   -0.9920 C   0  0  0  0  0  0  0  0  0  0  0  0
   -1.7220   -2.0170   -0.9550 C   0  0  0  0  0  0  0  0  0  0  0  0
   -2.2380   -0.8010   -0.4830 N   0  0  0  0  0  0  0  0  0  0  0  0
   -2.5300   -0.5780    0.8810 C   0  0  0  0  0  0  0  0  0  0  0  0
   -2.3030   -1.5120    1.7080 O   0  0  0  0  0  0  0  0  0  0  0  0
   -3.0890    0.6900    1.3990 C   0  0  0  0  0  0  0  0  0  0  0  0
   -3.3280    0.7850    2.6930 C   0  0  0  0  0  0  0  0  0  0  0  0
   -3.9890    2.2430    3.4060 S   0  0  0  0  0  0  0  0  0  0  0  0
   -4.2460    3.4700    2.1590 C   0  0  0  0  0  0  0  0  0  0  0  0
   -3.8680    3.0040    0.8040 C   0  0  0  0  0  0  0  0  0  0  0  0
   -4.0850    3.9880   -0.1880 C   0  0  0  0  0  0  0  0  0  0  0  0
   -3.7990    3.7600   -1.5010 C   0  0  0  0  0  0  0  0  0  0  0  0
   -3.2930    2.5420   -1.8260 C   0  0  0  0  0  0  0  0  0  0  0  0
   -3.0700    1.5600   -0.8880 C   0  0  0  0  0  0  0  0  0  0  0  0
   -3.3630    1.7900    0.4690 C   0  0  0  0  0  0  0  0  0  0  0  0
   -2.5130    0.2760   -1.3550 C   0  0  0  0  0  0  0  0  0  0  0  0
   -2.2880    0.1800   -2.6030 O   0  0  0  0  0  0  0  0  0  0  0  0
    0.5300   -1.1350   -0.6020 C   0  0  0  0  0  0  0  0  0  0  0  0
   -0.1220    0.0490   -0.1740 O   0  0  0  0  0  0  0  0  0  0  0  0
    0.4340    1.2060    0.2900 C   0  0  0  0  0  0  0  0  0  0  0  0
    1.9170    1.2200    0.2980 C   0  0  0  0  0  0  0  0  0  0  0  0
    2.5130    2.3470    0.6990 C   0  0  0  0  0  0  0  0  0  0  0  0
    3.9710    2.4350    0.7340 C   0  0  0  0  0  0  0  0  0  0  0  0
    4.6110    3.5960    1.1460 C   0  0  0  0  0  0  0  0  0  0  0  0
    6.0020    3.6250    1.1580 C   0  0  0  0  0  0  0  0  0  0  0  0
    6.7510    2.5440    0.7770 C   0  0  0  0  0  0  0  0  0  0  0  0
    6.1210    1.3950    0.3700 C   0  0  0  0  0  0  0  0  0  0  0  0
    4.7340    1.3650    0.3570 C   0  0  0  0  0  0  0  0  0  0  0  0
    4.1030    0.1160   -0.0830 C   0  0  0  0  0  0  0  0  0  0  0  0
    2.6800    0.1220   -0.0970 N   0  0  0  0  0  0  0  0  0  0  0  0
    1.9690   -1.0610   -0.5490 C   0  0  0  0  0  0  0  0  0  0  0  0
    2.6770   -2.0370   -0.8980 O   0  0  0  0  0  0  0  0  0  0  0  0
  1  2  1  0
  2  3  1  0
  3  4  1  0
  4  5  2  0
  4  6  1  0
  6  7  1  0
  6 23  2  3
  7  8  1  0
  8  9  1  0
  8 21  1  0
  9 10  2  0
  9 11  1  0
 11 12  2  0
 11 20  1  0
 12 13  1  0
 13 14  1  0
 14 15  1  0
 15 16  2  0
 15 20  1  0
 16 17  1  0
 17 18  2  0
 18 19  1  0
 19 20  2  0
 19 21  1  0
 21 22  2  0
 23 24  1  0
 23 36  1  0
 24 25  1  0
 25 26  1  0
 26 27  2  0
 26 35  1  0
 27 28  1  0
 28 29  2  0
 28 33  1  0
 29 30  1  0
 30 31  2  0
 31 32  1  0
 32 33  2  0
 33 34  1  0
 34 35  1  0
 35 36  1  0
 36 37  2  0
M  END
