
     RDKit          3D

 14 14  0  0  0  0  0  0  0  0999 V2000
    4.3550    0.0090   -0.0420 C   0  0  0  0  0  0  0  0  0  0  0  0
    3.3890   -1.1060    0.2500 C   0  0  0  0  0  0  0  0  0  0  0  0
    1.9660   -0.7160   -0.1790 C   0  0  0  0  0  0  0  0  0  0  0  0
    1.5820    0.5080    0.5960 C   0  0  0  0  0  0  0  0  0  0  0  0
    0.3190    1.0520    0.3680 N   0  0  2  0  0  0  0  0  0  0  0  0
   -0.5510   -0.1210   -0.1010 C   0  0  0  0  0  0  0  0  0  0  0  0
   -1.7680    0.5870   -0.4390 C   0  0  0  0  0  0  0  0  0  0  0  0
   -3.1860    0.5610   -0.4580 N   0  0  0  0  0  0  0  0  0  0  0  0
   -3.8790   -0.6200   -0.2660 C   0  0  0  0  0  0  0  0  0  0  0  0
   -5.3390   -0.6840   -0.2390 C   0  0  0  0  0  0  0  0  0  0  0  0
   -3.1450   -1.6210   -0.1210 O   0  0  0  0  0  0  0  0  0  0  0  0
   -1.3240    1.7450   -0.8900 N   0  0  0  0  0  0  0  0  0  0  0  0
    0.0890    1.7240   -0.8400 C   0  0  0  0  0  0  0  0  0  0  0  0
    0.8060    2.1920   -1.6880 O   0  0  0  0  0  0  0  0  0  0  0  0
  1  2  1  0
  2  3  1  0
  3  4  1  0
  5  4  1  6
  5  6  1  0
  5 13  1  0
  6  7  1  0
  7  8  1  0
  7 12  2  0
  8  9  1  0
  9 10  1  0
  9 11  2  0
 12 13  1  0
 13 14  2  0
M  CHG  1   5   1
M  END
