
     RDKit          3D

 14 14  0  0  0  0  0  0  0  0999 V2000
   -3.9760    1.6440    0.8950 C   0  0  0  0  0  0  0  0  0  0  0  0
   -2.8520    1.6120   -0.0190 N   0  0  0  0  0  0  0  0  0  0  0  0
   -1.6050    1.2470    0.5260 N   0  0  0  0  0  0  0  0  0  0  0  0
   -1.2360    0.0200    0.5330 C   0  0  0  0  0  0  0  0  0  0  0  0
   -2.0450   -1.1030   -0.0070 C   0  0  0  0  0  0  0  0  0  0  0  0
   -1.1110   -2.2910   -0.1320 C   0  0  0  0  0  0  0  0  0  0  0  0
    0.0870   -1.8630   -0.8090 N   0  0  0  0  0  0  0  0  0  0  0  0
    0.9250   -1.0120    0.0320 C   0  0  1  0  0  0  0  0  0  0  0  0
    1.5670    0.0100   -0.8760 C   0  0  0  0  0  0  0  0  0  0  0  0
    2.4460    0.9240   -0.1170 C   0  0  0  0  0  0  0  0  0  0  0  0
    2.0550    1.9610    0.4500 O   0  0  0  0  0  0  0  0  0  0  0  0
    3.7980    0.6030   -0.0300 O   0  0  0  0  0  0  0  0  0  0  0  0
    4.7230    1.4000    0.6650 C   0  0  0  0  0  0  0  0  0  0  0  0
    0.0870   -0.3470    1.1100 C   0  0  0  0  0  0  0  0  0  0  0  0
  1  2  1  0
  2  3  1  0
  3  4  2  3
  4  5  1  0
  4 14  1  0
  5  6  1  0
  6  7  1  0
  7  8  1  0
  8  9  1  6
  8 14  1  0
  9 10  1  0
 10 11  2  0
 10 12  1  0
 12 13  1  0
M  CHG  1   7   1
M  END
