
     RDKit          3D

 14 14  0  0  0  0  0  0  0  0999 V2000
   -4.9150    0.8010    0.6660 C   0  0  0  0  0  0  0  0  0  0  0  0
   -3.6140    0.8240    0.8220 C   0  0  0  0  0  0  0  0  0  0  0  0
   -2.7530    0.9050   -0.3770 C   0  0  0  0  0  0  0  0  0  0  0  0
   -1.8580   -0.2180   -0.5050 N   0  0  0  0  0  0  0  0  0  0  0  0
   -2.3160   -1.5390   -0.7850 C   0  0  0  0  0  0  0  0  0  0  0  0
   -1.4370   -2.5340   -0.8900 C   0  0  0  0  0  0  0  0  0  0  0  0
   -0.0490   -2.3180   -0.7300 N   0  0  0  0  0  0  0  0  0  0  0  0
    0.3810   -0.9870   -0.4510 C   0  0  0  0  0  0  0  0  0  0  0  0
    1.8460   -0.8080   -0.2880 C   0  0  0  0  0  0  0  0  0  0  0  0
    2.1970    0.5330   -0.0530 O   0  0  0  0  0  0  0  0  0  0  0  0
    3.5910    0.5150    0.0770 C   0  0  0  0  0  0  0  0  0  0  0  0
    4.1630    1.8890    0.3330 C   0  0  0  0  0  0  0  0  0  0  0  0
    3.6440    2.4270    1.5070 O   0  0  0  0  0  0  0  0  0  0  0  0
   -0.4840   -0.0360   -0.3530 N   0  0  0  0  0  0  0  0  0  0  0  0
  1  2  2  0
  2  3  1  0
  3  4  1  0
  4  5  1  0
  4 14  1  0
  5  6  2  0
  6  7  1  0
  7  8  1  0
  8  9  1  0
  8 14  2  0
  9 10  1  0
 10 11  1  0
 11 12  1  0
 12 13  1  0
M  END
