
     RDKit          3D

 13 13  0  0  0  0  0  0  0  0999 V2000
   -2.2790   -2.9300   -0.0270 C   0  0  0  0  0  0  0  0  0  0  0  0
   -1.1500   -2.1230   -0.3750 N   0  0  0  0  0  0  0  0  0  0  0  0
   -1.1560   -0.6880   -0.2290 C   0  0  0  0  0  0  0  0  0  0  0  0
   -2.2050   -0.0040    0.2400 N   0  0  0  0  0  0  0  0  0  0  0  0
   -1.8730    1.3040    0.2460 C   0  0  0  0  0  0  0  0  0  0  0  0
   -2.7500    2.4400    0.6940 C   0  0  0  0  0  0  0  0  0  0  0  0
   -0.5820    1.4170   -0.2350 C   0  0  0  0  0  0  0  0  0  0  0  0
    0.1840    2.6810   -0.3990 C   0  0  0  0  0  0  0  0  0  0  0  0
   -0.1530    0.1580   -0.5250 N   0  0  0  0  0  0  0  0  0  0  0  0
    1.1390   -0.1860   -1.0520 C   0  0  0  0  0  0  0  0  0  0  0  0
    2.1540   -0.4560    0.0310 C   0  0  0  0  0  0  0  0  0  0  0  0
    3.4000   -0.7890   -0.4940 O   0  0  0  0  0  0  0  0  0  0  0  0
    4.2490   -1.0140    0.5960 C   0  0  0  0  0  0  0  0  0  0  0  0
  1  2  1  0
  2  3  1  0
  3  4  2  0
  3  9  1  0
  4  5  1  0
  5  6  1  0
  5  7  2  0
  7  8  1  0
  7  9  1  0
  9 10  1  0
 10 11  1  0
 11 12  1  0
 12 13  1  0
M  CHG  1   4   1
M  END
