
     RDKit          3D

 14 14  0  0  0  0  0  0  0  0999 V2000
    4.4590    0.7730    1.4160 C   0  0  0  0  0  0  0  0  0  0  0  0
    3.2700    0.5260    0.7580 O   0  0  0  0  0  0  0  0  0  0  0  0
    3.4380    0.0570   -0.5240 C   0  0  0  0  0  0  0  0  0  0  0  0
    2.0970   -0.1750   -1.1200 C   0  0  0  0  0  0  0  0  0  0  0  0
    2.0720   -0.6350   -2.2980 O   0  0  0  0  0  0  0  0  0  0  0  0
    0.9360    0.1130   -0.3810 N   0  0  0  0  0  0  0  0  0  0  0  0
   -0.3260   -0.1000   -0.9160 N   0  0  0  0  0  0  0  0  0  0  0  0
   -0.4860   -0.2170   -2.3330 C   0  0  0  0  0  0  0  0  0  0  0  0
   -1.4710   -0.2100   -0.0470 C   0  0  0  0  0  0  0  0  0  0  0  0
   -1.3480   -0.8180    1.1240 C   0  0  0  0  0  0  0  0  0  0  0  0
   -2.4800   -0.9390    2.0100 C   0  0  0  0  0  0  0  0  0  0  0  0
   -3.6350   -0.4410    1.6480 C   0  0  0  0  0  0  0  0  0  0  0  0
   -3.8490    0.2120    0.4340 N   0  0  0  0  0  0  0  0  0  0  0  0
   -2.7500    0.3450   -0.4500 C   0  0  0  0  0  0  0  0  0  0  0  0
  1  2  1  0
  2  3  1  0
  3  4  1  0
  4  5  2  0
  4  6  1  0
  6  7  1  0
  7  8  1  0
  7  9  1  0
  9 10  2  0
  9 14  1  0
 10 11  1  0
 11 12  2  0
 12 13  1  0
 13 14  1  0
M  CHG  1  13   1
M  END
