
     RDKit          3D

 10 10  0  0  0  0  0  0  0  0999 V2000
   -3.1560   -0.3440    0.9270 C   0  0  0  0  0  0  0  0  0  0  0  0
   -2.4770    0.3900   -0.2130 C   0  0  0  0  0  0  0  0  0  0  0  0
   -1.0440   -0.0390   -0.2380 C   0  0  0  0  0  0  0  0  0  0  0  0
   -0.0000    0.7400   -0.0960 C   0  0  0  0  0  0  0  0  0  0  0  0
   -0.0940    2.2070    0.1170 C   0  0  0  0  0  0  0  0  0  0  0  0
    1.2440    0.0170   -0.1700 C   0  0  0  0  0  0  0  0  0  0  0  0
    2.4690    0.4550    0.0340 C   0  0  0  0  0  0  0  0  0  0  0  0
    3.5930   -0.4010   -0.0810 N   0  0  0  0  0  0  0  0  0  0  0  0
    0.8750   -1.3870   -0.5370 C   0  0  0  0  0  0  0  0  0  0  0  0
   -0.6180   -1.4470   -0.4340 C   0  0  0  0  0  0  0  0  0  0  0  0
  1  2  1  0
  2  3  1  0
  3  4  2  0
  3 10  1  0
  4  5  1  0
  4  6  1  0
  6  7  2  3
  6  9  1  0
  7  8  1  0
  9 10  1  0
M  CHG  1   8   1
M  END
