
     RDKit          3D

 11 11  0  0  0  0  0  0  0  0999 V2000
   -3.4910   -0.9960   -0.2020 O   0  0  0  0  0  0  0  0  0  0  0  0
   -2.6610   -0.1660    0.2000 C   0  0  0  0  0  0  0  0  0  0  0  0
   -3.0970    1.1370    0.4600 O   0  0  0  0  0  0  0  0  0  0  0  0
   -1.2240   -0.4440    0.4300 C   0  0  1  0  0  0  0  0  0  0  0  0
   -0.8650   -2.1460    0.0450 Cl  0  0  0  0  0  0  0  0  0  0  0  0
   -0.3670    0.4870   -0.4040 C   0  0  0  0  0  0  0  0  0  0  0  0
    1.0660    0.2180   -0.1820 C   0  0  0  0  0  0  0  0  0  0  0  0
    1.8850    0.7920    0.7640 C   0  0  0  0  0  0  0  0  0  0  0  0
    3.1320    0.2730    0.6370 N   0  0  0  0  0  0  0  0  0  0  0  0
    3.0670   -0.6000   -0.3690 C   0  0  0  0  0  0  0  0  0  0  0  0
    1.8060   -0.6420   -0.8780 N   0  0  0  0  0  0  0  0  0  0  0  0
  1  2  2  0
  2  3  1  0
  2  4  1  0
  4  5  1  6
  4  6  1  0
  6  7  1  0
  7  8  2  0
  7 11  1  0
  8  9  1  0
  9 10  2  0
 10 11  1  0
M  END
