
     RDKit          3D

 10 10  0  0  0  0  0  0  0  0999 V2000
    3.5970   -0.9420    0.3360 C   0  0  0  0  0  0  0  0  0  0  0  0
    2.1310   -0.7380    0.3470 C   0  0  0  0  0  0  0  0  0  0  0  0
    1.5790    0.2420   -0.3480 C   0  0  0  0  0  0  0  0  0  0  0  0
    0.1160    0.4980   -0.3770 C   0  0  2  0  0  0  0  0  0  0  0  0
   -0.1280    1.7110   -1.1000 N   0  0  0  0  0  0  0  0  0  0  0  0
   -0.3700    0.5710    1.0440 C   0  0  0  0  0  0  0  0  0  0  0  0
   -1.8900    0.7040    1.1050 C   0  0  0  0  0  0  0  0  0  0  0  0
   -2.4380   -0.6170    0.5830 C   0  0  0  0  0  0  0  0  0  0  0  0
   -2.0170   -0.7310   -0.8550 C   0  0  0  0  0  0  0  0  0  0  0  0
   -0.5360   -0.6860   -1.0440 C   0  0  0  0  0  0  0  0  0  0  0  0
  1  2  1  0
  2  3  2  3
  3  4  1  0
  4  5  1  6
  4  6  1  0
  4 10  1  0
  6  7  1  0
  7  8  1  0
  8  9  1  0
  9 10  1  0
M  CHG  1   5   1
M  END
