
     RDKit          3D

 10 10  0  0  0  0  0  0  0  0999 V2000
   -2.9610   -1.1260    0.1680 C   0  0  0  0  0  0  0  0  0  0  0  0
   -1.4670   -1.1160   -0.0880 C   0  0  0  0  0  0  0  0  0  0  0  0
   -0.9780    0.2790    0.0820 C   0  0  2  0  0  0  0  0  0  0  0  0
   -1.6560    1.1340   -0.8650 N   0  0  0  0  0  0  0  0  0  0  0  0
    0.5070    0.4360   -0.0850 C   0  0  1  0  0  0  0  0  0  0  0  0
    0.8170    1.9180    0.1220 C   0  0  0  0  0  0  0  0  0  0  0  0
    1.2990   -0.3260    0.9310 C   0  0  0  0  0  0  0  0  0  0  0  0
    2.2550   -1.1930    0.1350 C   0  0  0  0  0  0  0  0  0  0  0  0
    2.4660   -0.3510   -1.1080 C   0  0  0  0  0  0  0  0  0  0  0  0
    1.0160    0.0440   -1.4290 C   0  0  0  0  0  0  0  0  0  0  0  0
  1  2  1  0
  2  3  1  0
  3  4  1  6
  3  5  1  0
  5  6  1  1
  5  7  1  0
  5 10  1  0
  7  8  1  0
  8  9  1  0
  9 10  1  0
M  CHG  1   4   1
M  END
