
     RDKit          3D

 10 10  0  0  0  0  0  0  0  0999 V2000
   -3.2680    0.5340   -0.0020 C   0  0  0  0  0  0  0  0  0  0  0  0
   -2.4680   -0.6760   -0.2290 C   0  0  0  0  0  0  0  0  0  0  0  0
   -1.1970   -0.7850    0.0170 C   0  0  0  0  0  0  0  0  0  0  0  0
   -0.3640   -2.0170   -0.2100 C   0  0  0  0  0  0  0  0  0  0  0  0
    0.9820   -1.4640   -0.5170 C   0  0  0  0  0  0  0  0  0  0  0  0
    0.9930   -0.1870    0.2600 C   0  0  0  0  0  0  0  0  0  0  0  0
    2.2770    0.5040    0.6120 C   0  0  0  0  0  0  0  0  0  0  0  0
    3.0310    0.8770   -0.5510 N   0  0  0  0  0  0  0  0  0  0  0  0
   -0.2430    0.1800    0.5510 C   0  0  0  0  0  0  0  0  0  0  0  0
   -0.6030    1.3880    1.2980 C   0  0  0  0  0  0  0  0  0  0  0  0
  1  2  1  0
  2  3  2  3
  3  4  1  0
  3  9  1  0
  4  5  1  0
  5  6  1  0
  6  7  1  0
  6  9  2  0
  7  8  1  0
  9 10  1  0
M  CHG  1   8   1
M  END
