
     RDKit          3D

 37 41  0  0  0  0  0  0  0  0999 V2000
    9.4560   -0.2770   -0.7200 C   0  0  0  0  0  0  0  0  0  0  0  0
    8.2030    0.0400   -1.5050 C   0  0  0  0  0  0  0  0  0  0  0  0
    7.0630   -0.3440   -0.6860 N   0  0  0  0  0  0  0  0  0  0  0  0
    6.4330   -1.5350   -0.6720 C   0  0  0  0  0  0  0  0  0  0  0  0
    5.4420   -1.4380    0.2240 N   0  0  0  0  0  0  0  0  0  0  0  0
    5.4120   -0.2130    0.7930 C   0  0  0  0  0  0  0  0  0  0  0  0
    6.4620    0.4690    0.1920 C   0  0  0  0  0  0  0  0  0  0  0  0
    6.6410    1.7710    0.6220 C   0  0  0  0  0  0  0  0  0  0  0  0
    7.6000    2.4300    0.0910 O   0  0  0  0  0  0  0  0  0  0  0  0
    5.8650    2.3470    1.5520 N   0  0  0  0  0  0  0  0  0  0  0  0
    4.8600    1.6580    2.1110 C   0  0  0  0  0  0  0  0  0  0  0  0
    4.1310    2.2160    2.9930 O   0  0  0  0  0  0  0  0  0  0  0  0
    4.6590    0.3910    1.7140 N   0  0  0  0  0  0  0  0  0  0  0  0
    3.5760   -0.3580    2.3100 C   0  0  0  0  0  0  0  0  0  0  0  0
    2.3210   -0.1970    1.5320 C   0  0  0  0  0  0  0  0  0  0  0  0
    1.3950    0.7800    1.7570 C   0  0  0  0  0  0  0  0  0  0  0  0
    0.2450    0.8570    0.9820 C   0  0  0  0  0  0  0  0  0  0  0  0
   -0.0250   -0.0280   -0.0390 C   0  0  0  0  0  0  0  0  0  0  0  0
   -1.2610    0.1010   -0.8300 C   0  0  0  0  0  0  0  0  0  0  0  0
   -1.3320   -0.9430   -1.8160 N   0  0  0  0  0  0  0  0  0  0  0  0
   -2.7720   -0.8170   -2.7600 S   0  0  2  0  0  0  0  0  0  0  0  0
   -2.7980   -1.9030   -3.7970 O   0  0  0  0  0  0  0  0  0  0  0  0
   -2.8180    0.4960   -3.4890 O   0  0  0  0  0  0  0  0  0  0  0  0
   -4.1940   -0.9790   -1.7760 C   0  0  0  0  0  0  0  0  0  0  0  0
   -4.8190   -2.1750   -1.5090 C   0  0  0  0  0  0  0  0  0  0  0  0
   -5.9460   -2.2570   -0.7220 C   0  0  0  0  0  0  0  0  0  0  0  0
   -6.4640   -1.0980   -0.1850 C   0  0  0  0  0  0  0  0  0  0  0  0
   -5.8710    0.1240   -0.4260 C   0  0  0  0  0  0  0  0  0  0  0  0
   -4.7330    0.1700   -1.2260 C   0  0  0  0  0  0  0  0  0  0  0  0
   -6.2170    1.4750    0.0190 C   0  0  0  0  0  0  0  0  0  0  0  0
   -7.6950    1.6800    0.2360 C   0  0  0  0  0  0  0  0  0  0  0  0
   -8.2060    1.0520    1.4940 C   0  0  0  0  0  0  0  0  0  0  0  0
   -8.5290   -0.3800    1.2060 C   0  0  0  0  0  0  0  0  0  0  0  0
   -9.6760   -0.7900    1.5130 O   0  0  0  0  0  0  0  0  0  0  0  0
   -7.6250   -1.3030    0.6090 N   0  0  0  0  0  0  0  0  0  0  0  0
    0.9020   -1.0090   -0.2670 C   0  0  0  0  0  0  0  0  0  0  0  0
    2.0450   -1.0920    0.4980 C   0  0  0  0  0  0  0  0  0  0  0  0
  1  2  1  0
  2  3  1  0
  3  4  1  0
  3  7  1  0
  4  5  2  0
  5  6  1  0
  6  7  2  0
  6 13  1  0
  7  8  1  0
  8  9  2  0
  8 10  1  0
 10 11  1  0
 11 12  2  0
 11 13  1  0
 13 14  1  0
 14 15  1  0
 15 16  2  0
 15 37  1  0
 16 17  1  0
 17 18  2  0
 18 19  1  0
 18 36  1  0
 19 20  1  0
 21 20  1  1
 21 22  2  0
 21 23  2  0
 21 24  1  0
 24 25  2  0
 24 29  1  0
 25 26  1  0
 26 27  2  0
 27 28  1  0
 27 35  1  0
 28 29  2  0
 28 30  1  0
 30 31  1  0
 31 32  1  0
 32 33  1  0
 33 34  2  0
 33 35  1  0
 36 37  2  0
M  END
