
     RDKit          3D

 36 39  0  0  0  0  0  0  0  0999 V2000
   -5.3420   -3.0780    0.3200 C   0  0  0  0  0  0  0  0  0  0  0  0
   -6.7800   -2.8010    0.2120 C   0  0  0  0  0  0  0  0  0  0  0  0
   -7.2050   -1.4170    0.4990 C   0  0  0  0  0  0  0  0  0  0  0  0
   -6.7240   -0.3490   -0.3850 C   0  0  2  0  0  0  0  0  0  0  0  0
   -5.2500   -0.1380   -0.4340 C   0  0  0  0  0  0  0  0  0  0  0  0
   -4.8910    1.1150   -1.2360 C   0  0  2  0  0  0  0  0  0  0  0  0
   -3.4720    0.9230   -1.6790 C   0  0  0  0  0  0  0  0  0  0  0  0
   -2.3540    0.7870   -0.9140 C   0  0  0  0  0  0  0  0  0  0  0  0
   -1.2910    0.6360   -1.7670 C   0  0  0  0  0  0  0  0  0  0  0  0
    0.1300    0.4490   -1.3980 C   0  0  0  0  0  0  0  0  0  0  0  0
    0.9710    0.3370   -2.3130 O   0  0  0  0  0  0  0  0  0  0  0  0
    0.5610    0.3940   -0.0560 N   0  0  0  0  0  0  0  0  0  0  0  0
    1.9180    0.2130    0.3270 C   0  0  0  0  0  0  0  0  0  0  0  0
    3.0030    0.0690   -0.4280 N   0  0  0  0  0  0  0  0  0  0  0  0
    4.0970   -0.0780    0.3650 C   0  0  0  0  0  0  0  0  0  0  0  0
    5.4710   -0.2610    0.0050 C   0  0  0  0  0  0  0  0  0  0  0  0
    6.4160    0.3100    0.7680 C   0  0  0  0  0  0  0  0  0  0  0  0
    6.0950    1.0800    1.9060 N   0  0  0  0  0  0  0  0  0  0  0  0
    7.8120    0.0900    0.3700 C   0  0  0  0  0  0  0  0  0  0  0  0
    8.7410    0.1290    1.2970 C   0  0  0  0  0  0  0  0  0  0  0  0
   10.1520   -0.0880    0.9290 C   0  0  1  0  0  0  0  0  0  0  0  0
   10.3210   -1.4170    0.5730 F   0  0  0  0  0  0  0  0  0  0  0  0
   10.4610    0.7130   -0.1530 F   0  0  0  0  0  0  0  0  0  0  0  0
    8.1180   -0.1650   -1.0410 C   0  0  0  0  0  0  0  0  0  0  0  0
    7.0070   -0.4010   -1.7910 O   0  0  0  0  0  0  0  0  0  0  0  0
    5.9590   -1.0410   -1.1740 C   0  0  1  0  0  0  0  0  0  0  0  0
    6.2950   -2.4650   -0.8130 C   0  0  0  0  0  0  0  0  0  0  0  0
    3.6180   -0.0150    1.6150 N   0  0  0  0  0  0  0  0  0  0  0  0
    2.3400    0.1560    1.5680 O   0  0  0  0  0  0  0  0  0  0  0  0
   -1.7650    0.6810   -3.0100 N   0  0  0  0  0  0  0  0  0  0  0  0
   -3.0630    0.8510   -2.9580 N   0  0  0  0  0  0  0  0  0  0  0  0
   -5.0540    2.3700   -0.4550 C   0  0  0  0  0  0  0  0  0  0  0  0
   -6.2050    2.4030    0.4770 C   0  0  2  0  0  0  0  0  0  0  0  0
   -5.7620    2.4210    1.9470 C   0  0  0  0  0  0  0  0  0  0  0  0
   -4.9800    3.5420    2.2060 O   0  0  0  0  0  0  0  0  0  0  0  0
   -7.4970    1.2080    0.1720 S   0  0  0  0  0  0  0  0  0  0  0  0
  1  2  1  0
  2  3  1  0
  4  3  1  1
  4  5  1  0
  4 36  1  0
  5  6  1  0
  6  7  1  1
  6 32  1  0
  7  8  2  0
  7 31  1  0
  8  9  1  0
  9 10  1  0
  9 30  2  0
 10 11  2  0
 10 12  1  0
 12 13  1  0
 13 14  2  0
 13 29  1  0
 14 15  1  0
 15 16  1  0
 15 28  2  0
 16 17  2  0
 16 26  1  0
 17 18  1  0
 17 19  1  0
 19 20  2  3
 19 24  1  0
 20 21  1  0
 21 22  1  6
 21 23  1  0
 24 25  1  0
 25 26  1  0
 26 27  1  1
 28 29  1  0
 30 31  1  0
 32 33  1  0
 33 34  1  1
 33 36  1  0
 34 35  1  0
M  END
