
     RDKit          3D

 35 38  0  0  0  0  0  0  0  0999 V2000
    1.0800    2.5820   -0.7270 C   0  0  0  0  0  0  0  0  0  0  0  0
    1.6260    1.2490   -0.5440 N   0  0  0  0  0  0  0  0  0  0  0  0
    2.8770    1.0230   -0.1980 N   0  0  0  0  0  0  0  0  0  0  0  0
    3.1080   -0.2920   -0.1010 C   0  0  0  0  0  0  0  0  0  0  0  0
    4.3200   -0.9230    0.2430 N   0  0  0  0  0  0  0  0  0  0  0  0
    5.4850   -0.1300    0.5330 C   0  0  0  0  0  0  0  0  0  0  0  0
    5.4200    1.1220    0.4770 O   0  0  0  0  0  0  0  0  0  0  0  0
    6.7590   -0.7950    0.8970 C   0  0  0  0  0  0  0  0  0  0  0  0
    7.7820    0.2490    1.1350 C   0  0  0  0  0  0  0  0  0  0  0  0
    8.1350    0.5590    2.4300 C   0  0  0  0  0  0  0  0  0  0  0  0
    9.0940    1.5400    2.6900 C   0  0  0  0  0  0  0  0  0  0  0  0
    9.4240    1.8260    3.9710 F   0  0  0  0  0  0  0  0  0  0  0  0
    9.6940    2.2060    1.6520 C   0  0  0  0  0  0  0  0  0  0  0  0
    9.3270    1.8810    0.3680 C   0  0  0  0  0  0  0  0  0  0  0  0
    8.3760    0.9100    0.0820 C   0  0  0  0  0  0  0  0  0  0  0  0
    8.0230    0.5990   -1.1840 F   0  0  0  0  0  0  0  0  0  0  0  0
    1.8820   -0.8870   -0.4190 C   0  0  0  0  0  0  0  0  0  0  0  0
    0.9560    0.0650   -0.6950 C   0  0  0  0  0  0  0  0  0  0  0  0
   -0.4050    0.0050   -1.0640 N   0  0  0  0  0  0  0  0  0  0  0  0
   -1.0770   -1.2280   -1.2180 C   0  0  0  0  0  0  0  0  0  0  0  0
   -0.4570   -2.2920   -1.0250 O   0  0  0  0  0  0  0  0  0  0  0  0
   -2.4600   -1.3010   -1.5930 N   0  0  0  0  0  0  0  0  0  0  0  0
   -3.1140   -2.5800   -1.7420 C   0  0  2  0  0  0  0  0  0  0  0  0
   -3.8570   -2.7260   -3.0510 C   0  0  0  0  0  0  0  0  0  0  0  0
   -5.1680   -2.0830   -2.7540 C   0  0  0  0  0  0  0  0  0  0  0  0
   -5.3080   -1.9790   -1.3790 O   0  0  0  0  0  0  0  0  0  0  0  0
   -4.3120   -2.6580   -0.7750 C   0  0  2  0  0  0  0  0  0  0  0  0
   -3.9180   -2.2890    0.6060 C   0  0  0  0  0  0  0  0  0  0  0  0
   -3.2900   -0.6600    0.7630 S   0  0  0  0  0  0  0  0  0  0  0  0
   -4.3420    0.7260    0.7510 C   0  0  2  0  0  0  0  0  0  0  0  0
   -5.1610    0.7270    2.0770 C   0  0  0  0  0  0  0  0  0  0  0  0
   -6.0170    1.9560    1.8570 C   0  0  0  0  0  0  0  0  0  0  0  0
   -6.2050    2.0760    0.3640 C   0  0  0  0  0  0  0  0  0  0  0  0
   -5.4800    0.8120   -0.2020 C   0  0  1  0  0  0  0  0  0  0  0  0
   -5.1960    1.1110   -1.4950 O   0  0  0  0  0  0  0  0  0  0  0  0
  1  2  1  0
  2  3  1  0
  2 18  1  0
  3  4  2  0
  4  5  1  0
  4 17  1  0
  5  6  1  0
  6  7  2  0
  6  8  1  0
  8  9  1  0
  9 10  2  0
  9 15  1  0
 10 11  1  0
 11 12  1  0
 11 13  2  0
 13 14  1  0
 14 15  2  0
 15 16  1  0
 17 18  2  0
 18 19  1  0
 19 20  1  0
 20 21  2  0
 20 22  1  0
 23 22  1  6
 23 24  1  0
 23 27  1  0
 24 25  1  0
 25 26  1  0
 26 27  1  0
 27 28  1  1
 28 29  1  0
 30 29  1  6
 30 31  1  0
 30 34  1  0
 31 32  1  0
 32 33  1  0
 33 34  1  0
 34 35  1  6
M  END
