
     RDKit          3D

 36 39  0  0  0  0  0  0  0  0999 V2000
   -1.9060   -2.5080   -2.9030 N   0  0  0  0  0  0  0  0  0  0  0  0
   -2.7970   -2.5950   -2.1900 C   0  0  0  0  0  0  0  0  0  0  0  0
   -3.9040   -2.7160   -1.2750 C   0  0  0  0  0  0  0  0  0  0  0  0
   -4.0350   -1.6650   -0.2360 C   0  0  0  0  0  0  0  0  0  0  0  0
   -4.1280   -0.3060   -0.6370 N   0  0  0  0  0  0  0  0  0  0  0  0
   -2.9620    0.5130   -0.7550 C   0  0  0  0  0  0  0  0  0  0  0  0
   -3.1340    1.7170   -1.1730 O   0  0  0  0  0  0  0  0  0  0  0  0
   -1.6000    0.1440   -0.4540 C   0  0  0  0  0  0  0  0  0  0  0  0
   -0.5660    1.0820   -0.6460 C   0  0  0  0  0  0  0  0  0  0  0  0
    0.7010    0.7520   -0.3700 N   0  0  0  0  0  0  0  0  0  0  0  0
    1.0800   -0.4470    0.0940 C   0  0  0  0  0  0  0  0  0  0  0  0
    2.6850   -0.9890    0.4840 S   0  0  0  0  0  0  0  0  0  0  0  0
    4.0070    0.1620    0.2620 C   0  0  0  0  0  0  0  0  0  0  0  0
    5.2460   -0.3120    0.5580 C   0  0  0  0  0  0  0  0  0  0  0  0
    5.2960   -1.6780    1.0060 N   0  0  0  0  0  0  0  0  0  0  0  0
    6.4620    0.4770    0.4440 C   0  0  1  0  0  0  0  0  0  0  0  0
    7.0050    0.5620    1.7360 F   0  0  0  0  0  0  0  0  0  0  0  0
    7.5310   -0.1940   -0.3940 C   0  0  0  0  0  0  0  0  0  0  0  0
    8.7700    0.6440   -0.5610 C   0  0  0  0  0  0  0  0  0  0  0  0
    8.6990    1.9620    0.1900 C   0  0  0  0  0  0  0  0  0  0  0  0
    7.3950    2.5850   -0.1620 C   0  0  0  0  0  0  0  0  0  0  0  0
    6.2940    1.8460   -0.0340 C   0  0  0  0  0  0  0  0  0  0  0  0
    5.0380    2.3060   -0.3260 O   0  0  0  0  0  0  0  0  0  0  0  0
    3.8770    1.5310   -0.2020 C   0  0  0  0  0  0  0  0  0  0  0  0
    2.7630    2.0250   -0.4890 O   0  0  0  0  0  0  0  0  0  0  0  0
    0.0520   -1.4110    0.2950 C   0  0  0  0  0  0  0  0  0  0  0  0
   -1.1850   -1.0390    0.0080 N   0  0  0  0  0  0  0  0  0  0  0  0
   -5.4160    0.3450   -0.8580 C   0  0  1  0  0  0  0  0  0  0  0  0
   -6.1240   -0.1460   -2.1090 C   0  0  0  0  0  0  0  0  0  0  0  0
   -7.4860    0.0150   -1.7530 O   0  0  0  0  0  0  0  0  0  0  0  0
   -7.4950   -0.6970   -0.5240 C   0  0  2  0  0  0  0  0  0  0  0  0
   -8.6950   -0.6080    0.1120 F   0  0  0  0  0  0  0  0  0  0  0  0
   -6.4100    0.0780    0.1890 C   0  0  0  0  0  0  0  0  0  0  0  0
   -6.3880    0.4320    1.4480 C   0  0  0  0  0  0  0  0  0  0  0  0
   -5.3020    1.2160    2.1100 C   0  0  0  0  0  0  0  0  0  0  0  0
   -4.7400    0.4200    3.1740 N   0  0  0  0  0  0  0  0  0  0  0  0
  1  2  3  0
  2  3  1  0
  3  4  1  0
  4  5  1  0
  5  6  1  0
 28  5  1  1
  6  7  2  0
  6  8  1  0
  8  9  2  0
  8 27  1  0
  9 10  1  0
 10 11  2  0
 11 12  1  0
 11 26  1  0
 12 13  1  0
 13 14  2  0
 13 24  1  0
 14 15  1  0
 14 16  1  0
 16 17  1  1
 16 18  1  0
 16 22  1  0
 18 19  1  0
 19 20  1  0
 20 21  1  0
 21 22  2  0
 22 23  1  0
 23 24  1  0
 24 25  2  0
 26 27  2  0
 28 29  1  0
 28 33  1  0
 29 30  1  0
 30 31  1  0
 31 32  1  1
 31 33  1  0
 33 34  2  3
 34 35  1  0
 35 36  1  0
M  END
