
     RDKit          3D

 36 39  0  0  0  0  0  0  0  0999 V2000
    6.5450    1.7120   -2.9010 C   0  0  0  0  0  0  0  0  0  0  0  0
    6.4830    0.4440   -2.5840 C   0  0  0  0  0  0  0  0  0  0  0  0
    5.5530   -0.1060   -1.5860 C   0  0  0  0  0  0  0  0  0  0  0  0
    4.5050    1.1810   -0.8510 S   0  0  0  0  0  0  0  0  0  0  0  0
    3.3930    0.4840    0.3610 C   0  0  0  0  0  0  0  0  0  0  0  0
    3.6700    0.3460    1.6560 N   0  0  0  0  0  0  0  0  0  0  0  0
    2.6500   -0.1930    2.2500 N   0  0  0  0  0  0  0  0  0  0  0  0
    1.6380   -0.4370    1.3450 C   0  0  0  0  0  0  0  0  0  0  0  0
    0.3750   -1.0280    1.7160 C   0  0  1  0  0  0  0  0  0  0  0  0
    0.3200   -1.3120    3.2090 C   0  0  0  0  0  0  0  0  0  0  0  0
    0.5150   -0.2460    4.1480 C   0  0  0  0  0  0  0  0  0  0  0  0
    0.9300    0.9050    3.9790 O   0  0  0  0  0  0  0  0  0  0  0  0
    0.1730   -0.5460    5.5310 N   0  0  0  0  0  0  0  0  0  0  0  0
    0.3300    0.4610    6.5600 C   0  0  0  0  0  0  0  0  0  0  0  0
   -0.8360   -0.4920    1.1710 N   0  0  0  0  0  0  0  0  0  0  0  0
   -1.8400   -1.4450    0.7180 C   0  0  0  0  0  0  0  0  0  0  0  0
   -1.8200   -1.8330   -0.6840 C   0  0  0  0  0  0  0  0  0  0  0  0
   -2.9960   -2.0150   -1.4390 C   0  0  0  0  0  0  0  0  0  0  0  0
   -2.6570   -2.3800   -2.7230 C   0  0  0  0  0  0  0  0  0  0  0  0
   -1.2610   -2.4080   -2.7050 C   0  0  0  0  0  0  0  0  0  0  0  0
   -0.8460   -2.0850   -1.5080 O   0  0  0  0  0  0  0  0  0  0  0  0
   -0.7850   -2.7480   -3.8900 C   0  0  0  0  0  0  0  0  0  0  0  0
    0.5460   -2.8690   -4.2110 F   0  0  0  0  0  0  0  0  0  0  0  0
   -1.9170   -2.9800   -4.8200 C   0  0  0  0  0  0  0  0  0  0  0  0
   -3.0780   -2.7070   -3.9390 C   0  0  0  0  0  0  0  0  0  0  0  0
   -4.3600   -2.7920   -4.3550 F   0  0  0  0  0  0  0  0  0  0  0  0
   -1.1970    0.8770    1.1280 C   0  0  0  0  0  0  0  0  0  0  0  0
   -0.3620    1.7110    1.5880 O   0  0  0  0  0  0  0  0  0  0  0  0
   -2.4570    1.4460    0.6030 C   0  0  2  0  0  0  0  0  0  0  0  0
   -2.3490    1.6620   -0.9120 C   0  0  0  0  0  0  0  0  0  0  0  0
   -3.3670    2.7330   -1.2280 C   0  0  2  0  0  0  0  0  0  0  0  0
   -2.8480    3.7520   -2.0270 O   0  0  0  0  0  0  0  0  0  0  0  0
   -3.6550    3.3390    0.1230 C   0  0  0  0  0  0  0  0  0  0  0  0
   -2.5640    2.8670    0.9870 N   0  0  0  0  0  0  0  0  0  0  0  0
    2.1510    0.0040    0.1760 N   0  0  0  0  0  0  0  0  0  0  0  0
    1.5040   -0.0150   -1.1010 C   0  0  0  0  0  0  0  0  0  0  0  0
  1  2  2  0
  2  3  1  0
  3  4  1  0
  4  5  1  0
  5  6  2  0
  5 35  1  0
  6  7  1  0
  7  8  2  0
  8  9  1  0
  8 35  1  0
  9 10  1  1
  9 15  1  0
 10 11  1  0
 11 12  2  0
 11 13  1  0
 13 14  1  0
 15 16  1  0
 15 27  1  0
 16 17  1  0
 17 18  2  0
 17 21  1  0
 18 19  1  0
 19 20  1  0
 19 25  2  0
 20 21  1  0
 20 22  2  0
 22 23  1  0
 22 24  1  0
 24 25  1  0
 25 26  1  0
 27 28  2  0
 29 27  1  1
 29 30  1  0
 29 34  1  0
 30 31  1  0
 31 32  1  6
 31 33  1  0
 33 34  1  0
 35 36  1  0
M  END
