
     RDKit          3D

 17 19  0  0  0  0  0  0  0  0999 V2000
   -4.1420   -2.1680    0.8980 O   0  0  0  0  0  0  0  0  0  0  0  0
   -3.9000   -1.1340   -0.1370 S   0  0  1  0  0  0  0  0  0  0  0  0
   -4.6900   -1.3470   -1.3740 O   0  0  0  0  0  0  0  0  0  0  0  0
   -4.2280    0.5200    0.4900 C   0  0  0  0  0  0  0  0  0  0  0  0
   -3.0110    1.2460   -0.0990 C   0  0  0  0  0  0  0  0  0  0  0  0
   -1.8290    0.3220    0.2470 C   0  0  2  0  0  0  0  0  0  0  0  0
   -0.6230    0.9340   -0.2120 N   0  0  0  0  0  0  0  0  0  0  0  0
    0.6890    0.4360    0.0020 C   0  0  0  0  0  0  0  0  0  0  0  0
    0.8900   -0.6500    0.8160 C   0  0  0  0  0  0  0  0  0  0  0  0
    2.1690   -1.1610    1.0350 C   0  0  0  0  0  0  0  0  0  0  0  0
    3.2780   -0.5950    0.4410 C   0  0  0  0  0  0  0  0  0  0  0  0
    4.6370   -0.8890    0.4800 C   0  0  0  0  0  0  0  0  0  0  0  0
    5.2390    0.0570   -0.3380 C   0  0  0  0  0  0  0  0  0  0  0  0
    4.2900    0.8680   -0.8350 N   0  0  0  0  0  0  0  0  0  0  0  0
    3.0780    0.5010   -0.3810 C   0  0  0  0  0  0  0  0  0  0  0  0
    1.7980    1.0040   -0.5930 C   0  0  0  0  0  0  0  0  0  0  0  0
   -2.1470   -0.9640   -0.5080 C   0  0  0  0  0  0  0  0  0  0  0  0
  1  2  2  0
  2  3  2  0
  2  4  1  1
  2 17  1  0
  4  5  1  0
  5  6  1  0
  6  7  1  6
  6 17  1  0
  7  8  1  0
  8  9  2  0
  8 16  1  0
  9 10  1  0
 10 11  2  0
 11 12  1  0
 11 15  1  0
 12 13  2  0
 13 14  1  0
 14 15  1  0
 15 16  2  0
M  END
