
     RDKit          3D

 18 19  0  0  0  0  0  0  0  0999 V2000
   -5.1620   -2.7010   -0.3100 C   0  0  0  0  0  0  0  0  0  0  0  0
   -4.3820   -1.4510   -0.1370 C   0  0  0  0  0  0  0  0  0  0  0  0
   -3.0760   -1.1700   -0.1140 C   0  0  0  0  0  0  0  0  0  0  0  0
   -2.6190    0.0720    0.0650 C   0  0  0  0  0  0  0  0  0  0  0  0
   -1.2460    0.5030    0.1110 N   0  0  0  0  0  0  0  0  0  0  0  0
   -0.1250   -0.3230   -0.0310 C   0  0  0  0  0  0  0  0  0  0  0  0
   -0.2620   -1.5530   -0.2180 O   0  0  0  0  0  0  0  0  0  0  0  0
    1.2400    0.2710    0.0410 C   0  0  0  0  0  0  0  0  0  0  0  0
    1.3980    1.5030    0.2280 O   0  0  0  0  0  0  0  0  0  0  0  0
    2.3690   -0.5450   -0.1000 N   0  0  0  0  0  0  0  0  0  0  0  0
    3.7120   -0.0630   -0.0450 C   0  0  0  0  0  0  0  0  0  0  0  0
    4.5920   -0.1720   -1.0280 C   0  0  0  0  0  0  0  0  0  0  0  0
    5.8890    0.4350   -0.6320 C   0  0  0  0  0  0  0  0  0  0  0  0
    5.6320    0.9150    0.7300 C   0  0  0  0  0  0  0  0  0  0  0  0
    4.3850    0.6140    1.0310 C   0  0  0  0  0  0  0  0  0  0  0  0
   -3.6210    1.0580    0.2250 C   0  0  0  0  0  0  0  0  0  0  0  0
   -3.4860    2.5110    0.4380 C   0  0  0  0  0  0  0  0  0  0  0  0
   -5.1310    0.2100    0.1200 S   0  0  0  0  0  0  0  0  0  0  0  0
  1  2  1  0
  2  3  2  0
  2 18  1  0
  3  4  1  0
  4  5  1  0
  4 16  2  0
  5  6  1  0
  6  7  2  0
  6  8  1  0
  8  9  2  0
  8 10  1  0
 10 11  1  0
 11 12  2  0
 11 15  1  0
 12 13  1  0
 13 14  1  0
 14 15  2  0
 16 17  1  0
 16 18  1  0
M  END
