
     RDKit          3D

 18 19  0  0  0  0  0  0  0  0999 V2000
   -4.4990    0.6010    1.9110 C   0  0  0  0  0  0  0  0  0  0  0  0
   -3.1790    0.4970    1.4550 O   0  0  0  0  0  0  0  0  0  0  0  0
   -2.8810    0.4360    0.0680 C   0  0  0  0  0  0  0  0  0  0  0  0
   -3.7690    0.8480   -0.7640 C   0  0  0  0  0  0  0  0  0  0  0  0
   -3.7570    0.9120   -2.2390 C   0  0  0  0  0  0  0  0  0  0  0  0
   -2.2250    0.2770   -2.8890 S   0  0  0  0  0  0  0  0  0  0  0  0
   -1.1840   -0.2140   -1.5550 C   0  0  0  0  0  0  0  0  0  0  0  0
   -1.5600   -0.1070   -0.3080 C   0  0  0  0  0  0  0  0  0  0  0  0
   -0.6690   -0.5410    0.8030 C   0  0  0  0  0  0  0  0  0  0  0  0
    0.4340   -1.0120    0.6310 N   0  0  0  0  0  0  0  0  0  0  0  0
    1.4280   -1.4110   -0.1380 N   0  0  0  0  0  0  0  0  0  0  0  0
    2.7960   -0.9670    0.0990 C   0  0  0  0  0  0  0  0  0  0  0  0
    3.7180   -1.7940    0.6980 C   0  0  0  0  0  0  0  0  0  0  0  0
    5.0110   -1.3610    0.9490 C   0  0  0  0  0  0  0  0  0  0  0  0
    5.4070   -0.0910    0.6050 C   0  0  0  0  0  0  0  0  0  0  0  0
    4.4640    0.7370   -0.0010 C   0  0  0  0  0  0  0  0  0  0  0  0
    3.1630    0.3080   -0.2560 C   0  0  0  0  0  0  0  0  0  0  0  0
    2.2250    1.1470   -0.8650 O   0  0  0  0  0  0  0  0  0  0  0  0
  1  2  1  0
  2  3  1  0
  3  4  2  0
  3  8  1  0
  4  5  1  0
  5  6  1  0
  6  7  1  0
  7  8  2  0
  8  9  1  0
  9 10  2  3
 10 11  1  0
 11 12  1  0
 12 13  2  0
 12 17  1  0
 13 14  1  0
 14 15  2  0
 15 16  1  0
 16 17  2  0
 17 18  1  0
M  END
