
     RDKit          3D

 18 18  0  0  0  0  0  0  0  0999 V2000
   -2.9030   -1.3780   -2.1810 C   0  0  0  0  0  0  0  0  0  0  0  0
   -3.5280   -0.5880   -1.0630 C   0  0  0  0  0  0  0  0  0  0  0  0
   -4.8650   -0.7370   -1.0350 C   0  0  0  0  0  0  0  0  0  0  0  0
   -5.9120    0.0630    0.1650 S   0  0  0  0  0  0  0  0  0  0  0  0
   -4.7910    0.9940    1.1860 C   0  0  0  0  0  0  0  0  0  0  0  0
   -3.3840    0.9030    0.8390 C   0  0  0  0  0  0  0  0  0  0  0  0
   -2.5090    1.7310    1.7690 C   0  0  0  0  0  0  0  0  0  0  0  0
   -2.7570    0.2200   -0.1450 C   0  0  0  0  0  0  0  0  0  0  0  0
   -1.3560    0.3860   -0.1670 N   0  0  0  0  0  0  0  0  0  0  0  0
   -0.2990   -0.0610   -0.9270 C   0  0  0  0  0  0  0  0  0  0  0  0
   -0.4580   -0.8050   -1.8730 O   0  0  0  0  0  0  0  0  0  0  0  0
    1.0970    0.3840   -0.5790 C   0  0  0  0  0  0  0  0  0  0  0  0
    1.3460    1.1460    0.3740 O   0  0  0  0  0  0  0  0  0  0  0  0
    2.1820   -0.0790   -1.3640 N   0  0  0  0  0  0  0  0  0  0  0  0
    3.5470    0.2700   -1.1360 C   0  0  0  0  0  0  0  0  0  0  0  0
    4.0450   -0.1460    0.2320 C   0  0  2  0  0  0  0  0  0  0  0  0
    5.4960    0.2730    0.3580 C   0  0  0  0  0  0  0  0  0  0  0  0
    4.0080   -1.6640    0.3190 C   0  0  0  0  0  0  0  0  0  0  0  0
  1  2  1  0
  2  3  2  0
  2  8  1  0
  3  4  1  0
  4  5  1  0
  5  6  1  0
  6  7  1  0
  6  8  2  0
  8  9  1  0
  9 10  1  0
 10 11  2  0
 10 12  1  0
 12 13  2  0
 12 14  1  0
 14 15  1  0
 15 16  1  0
 16 17  1  6
 16 18  1  0
M  END
