
     RDKit          3D

 46 50  0  0  0  0  0  0  0  0999 V2000
    3.7730   -5.1280   -2.7390 C   0  0  0  0  0  0  0  0  0  0  0  0
    2.6020   -4.3420   -2.8890 O   0  0  0  0  0  0  0  0  0  0  0  0
    1.6200   -4.2440   -1.9250 C   0  0  0  0  0  0  0  0  0  0  0  0
    1.8660   -4.9280   -0.8850 O   0  0  0  0  0  0  0  0  0  0  0  0
    0.3990   -3.4590   -2.0150 C   0  0  0  0  0  0  0  0  0  0  0  0
   -0.0040   -2.7420   -3.0230 C   0  0  0  0  0  0  0  0  0  0  0  0
    0.8850   -2.7030   -4.2320 C   0  0  0  0  0  0  0  0  0  0  0  0
   -1.2840   -2.1450   -3.1960 N   0  0  0  0  0  0  0  0  0  0  0  0
   -2.1470   -2.2910   -2.3760 C   0  0  0  0  0  0  0  0  0  0  0  0
   -3.4630   -1.8530   -2.2690 N   0  0  0  0  0  0  0  0  0  0  0  0
   -4.3900   -2.9270   -1.8960 C   0  0  0  0  0  0  0  0  0  0  0  0
   -3.7670   -4.0560   -1.8440 O   0  0  0  0  0  0  0  0  0  0  0  0
   -1.3430   -2.2140   -0.9400 C   0  0  0  0  0  0  0  0  0  0  0  0
   -1.5970   -1.1140   -0.3250 C   0  0  0  0  0  0  0  0  0  0  0  0
   -0.9380   -1.0040    0.9900 N   0  0  0  0  0  0  0  0  0  0  0  0
   -0.3460    0.2590    1.3570 C   0  0  0  0  0  0  0  0  0  0  0  0
    0.8530    0.1210    2.1790 C   0  0  0  0  0  0  0  0  0  0  0  0
    0.8230   -0.1570    3.5220 C   0  0  0  0  0  0  0  0  0  0  0  0
    2.0240   -0.2320    4.1990 C   0  0  0  0  0  0  0  0  0  0  0  0
    3.2520   -0.0410    3.5880 C   0  0  0  0  0  0  0  0  0  0  0  0
    3.2910    0.2370    2.2450 C   0  0  0  0  0  0  0  0  0  0  0  0
    4.5890    0.4410    1.5430 C   0  0  0  0  0  0  0  0  0  0  0  0
    4.9660    1.8170    1.3960 N   0  0  1  0  0  0  0  0  0  0  0  0
    6.3920    2.0370    1.6360 C   0  0  0  0  0  0  0  0  0  0  0  0
    4.7630    2.2080   -0.0100 C   0  0  0  0  0  0  0  0  0  0  0  0
    2.0980    0.3110    1.5730 C   0  0  0  0  0  0  0  0  0  0  0  0
   -2.1160    0.1780   -0.7170 C   0  0  0  0  0  0  0  0  0  0  0  0
   -2.2930    0.4990   -1.9060 O   0  0  0  0  0  0  0  0  0  0  0  0
   -2.4500    1.1230    0.2130 O   0  0  0  0  0  0  0  0  0  0  0  0
   -2.9680    2.3980   -0.0920 C   0  0  2  0  0  0  0  0  0  0  0  0
   -2.1920    3.5160    0.5020 C   0  0  0  0  0  0  0  0  0  0  0  0
   -2.6100    4.8670    0.1340 C   0  0  0  0  0  0  0  0  0  0  0  0
   -4.0400    4.9150   -0.3870 C   0  0  0  0  0  0  0  0  0  0  0  0
   -4.5810    6.0030   -0.9920 C   0  0  0  0  0  0  0  0  0  0  0  0
   -5.8530    5.9530   -1.4250 C   0  0  0  0  0  0  0  0  0  0  0  0
   -6.7150    6.9450   -2.1090 C   0  0  0  0  0  0  0  0  0  0  0  0
   -6.3860    4.2780   -0.9810 S   0  0  0  0  0  0  0  0  0  0  0  0
   -4.8510    3.8210   -0.2620 C   0  0  0  0  0  0  0  0  0  0  0  0
   -4.4040    2.5440    0.3780 C   0  0  0  0  0  0  0  0  0  0  0  0
   -0.4760   -3.3450   -0.7740 C   0  0  2  0  0  0  0  0  0  0  0  0
    0.2600   -3.5300    0.4430 C   0  0  0  0  0  0  0  0  0  0  0  0
   -0.1880   -4.4400    1.3930 C   0  0  0  0  0  0  0  0  0  0  0  0
    0.5380   -4.6510    2.5430 C   0  0  0  0  0  0  0  0  0  0  0  0
    1.7200   -3.9740    2.7860 C   0  0  0  0  0  0  0  0  0  0  0  0
    2.1550   -3.0740    1.8380 C   0  0  0  0  0  0  0  0  0  0  0  0
    1.4270   -2.8650    0.6890 C   0  0  0  0  0  0  0  0  0  0  0  0
  1  2  1  0
  2  3  1  0
  3  4  2  0
  3  5  1  0
  5  6  2  0
  5 40  1  0
  6  7  1  0
  6  8  1  0
  8  9  2  0
  9 10  1  0
  9 13  1  0
 10 11  1  0
 11 12  2  0
 13 14  2  3
 13 40  1  0
 14 15  1  0
 14 27  1  0
 15 16  1  0
 16 17  1  0
 17 18  2  0
 17 26  1  0
 18 19  1  0
 19 20  2  0
 20 21  1  0
 21 22  1  0
 21 26  2  0
 22 23  1  0
 23 24  1  6
 23 25  1  0
 27 28  2  0
 27 29  1  0
 30 29  1  1
 30 31  1  0
 30 39  1  0
 31 32  1  0
 32 33  1  0
 33 34  1  0
 33 38  2  0
 34 35  2  0
 35 36  1  0
 35 37  1  0
 37 38  1  0
 38 39  1  0
 40 41  1  1
 41 42  2  0
 41 46  1  0
 42 43  1  0
 43 44  2  0
 44 45  1  0
 45 46  2  0
M  CHG  1  23   1
M  END
