
     RDKit          3D

 46 51  0  0  0  0  0  0  0  0999 V2000
    4.5420   -1.3710   -0.5020 C   0  0  0  0  0  0  0  0  0  0  0  0
    5.4220   -0.9010    0.4480 N   0  0  0  0  0  0  0  0  0  0  0  0
    4.6210   -0.4760    1.8940 C   0  0  0  0  0  0  0  0  0  0  0  0
    5.5810   -0.1700    2.3810 O   0  0  0  0  0  0  0  0  0  0  0  0
    3.3500   -0.7890    1.4970 C   0  0  0  0  0  0  0  0  0  0  0  0
    2.2460   -1.0750    1.1640 C   0  0  0  0  0  0  0  0  0  0  0  0
    0.9100   -1.4100    0.7810 C   0  0  0  0  0  0  0  0  0  0  0  0
    0.4580   -2.6540    0.5630 C   0  0  0  0  0  0  0  0  0  0  0  0
   -0.8650   -2.9170    0.1820 C   0  0  0  0  0  0  0  0  0  0  0  0
   -1.7390   -1.8580    0.0190 C   0  0  0  0  0  0  0  0  0  0  0  0
   -3.1020   -2.1530   -0.4580 C   0  0  0  0  0  0  0  0  0  0  0  0
   -4.0960   -1.1620   -0.2320 N   0  0  0  0  0  0  0  0  0  0  0  0
   -4.9930   -1.0520    0.7520 C   0  0  0  0  0  0  0  0  0  0  0  0
   -5.3060   -1.8380    1.8670 C   0  0  0  0  0  0  0  0  0  0  0  0
   -6.3090   -1.4800    2.7420 C   0  0  0  0  0  0  0  0  0  0  0  0
   -7.0240   -0.3360    2.5350 C   0  0  0  0  0  0  0  0  0  0  0  0
   -6.7370    0.4690    1.4370 C   0  0  0  0  0  0  0  0  0  0  0  0
   -5.7510    0.1050    0.5800 C   0  0  0  0  0  0  0  0  0  0  0  0
   -5.2910    0.7150   -0.5610 C   0  0  0  0  0  0  0  0  0  0  0  0
   -5.6770    1.8670   -1.1560 C   0  0  0  0  0  0  0  0  0  0  0  0
   -6.9440    2.9670   -0.7660 S   0  0  2  0  0  0  0  0  0  0  0  0
   -6.8280    4.2110   -1.6810 O   0  0  0  0  0  0  0  0  0  0  0  0
   -6.6420    3.6500    0.6030 O   0  0  0  0  0  0  0  0  0  0  0  0
   -8.5390    2.4710   -0.9170 N   0  0  0  0  0  0  0  0  0  0  0  0
   -9.3500    2.5640    0.2280 C   0  0  0  0  0  0  0  0  0  0  0  0
   -9.9590    1.2400    0.5280 C   0  0  0  0  0  0  0  0  0  0  0  0
   -9.5830    0.3400   -0.6310 C   0  0  2  0  0  0  0  0  0  0  0  0
   -9.0830   -0.8660   -0.1460 O   0  0  0  0  0  0  0  0  0  0  0  0
   -8.6200    1.1410   -1.4390 C   0  0  0  0  0  0  0  0  0  0  0  0
   -4.9400    2.1900   -2.3200 C   0  0  0  0  0  0  0  0  0  0  0  0
   -3.9280    1.4370   -2.8280 C   0  0  0  0  0  0  0  0  0  0  0  0
   -3.5830    0.2900   -2.1930 C   0  0  0  0  0  0  0  0  0  0  0  0
   -4.2690   -0.0910   -1.0370 C   0  0  0  0  0  0  0  0  0  0  0  0
   -1.2940   -0.5720    0.2400 C   0  0  0  0  0  0  0  0  0  0  0  0
    0.0090   -0.3330    0.6160 C   0  0  0  0  0  0  0  0  0  0  0  0
    6.7640   -0.6950    0.4770 C   0  0  1  0  0  0  0  0  0  0  0  0
    7.5720   -2.0000    0.2290 C   0  0  0  0  0  0  0  0  0  0  0  0
    8.9300   -1.4520   -0.0730 C   0  0  0  0  0  0  0  0  0  0  0  0
    8.7260   -0.1190   -0.6190 N   0  0  2  0  0  0  0  0  0  0  0  0
    9.3080    0.8590    0.2990 C   0  0  0  0  0  0  0  0  0  0  0  0
   10.7350    1.1990   -0.1090 C   0  0  2  0  0  0  0  0  0  0  0  0
   11.3290    2.1230    0.9100 C   0  0  0  0  0  0  0  0  0  0  0  0
   10.7110    1.7470   -1.4040 O   0  0  0  0  0  0  0  0  0  0  0  0
   11.5710   -0.0000   -0.2070 C   0  0  0  0  0  0  0  0  0  0  0  0
   12.2350   -0.9700   -0.3040 N   0  0  0  0  0  0  0  0  0  0  0  0
    7.2980    0.1160   -0.7010 C   0  0  0  0  0  0  0  0  0  0  0  0
  1  2  1  0
  2  3  1  0
 36  2  1  6
  3  4  2  0
  3  5  1  0
  5  6  3  0
  6  7  1  0
  7  8  2  0
  7 35  1  0
  8  9  1  0
  9 10  2  0
 10 11  1  0
 10 34  1  0
 11 12  1  0
 12 13  1  0
 12 33  1  0
 13 14  2  0
 13 18  1  0
 14 15  1  0
 15 16  2  0
 16 17  1  0
 17 18  2  0
 18 19  1  0
 19 20  2  0
 19 33  1  0
 20 21  1  0
 20 30  1  0
 21 22  2  0
 21 23  2  0
 21 24  1  1
 24 25  1  0
 24 29  1  0
 25 26  1  0
 26 27  1  0
 27 28  1  1
 27 29  1  0
 30 31  2  0
 31 32  1  0
 32 33  2  0
 34 35  2  0
 36 37  1  0
 36 46  1  0
 37 38  1  0
 38 39  1  0
 39 40  1  1
 39 46  1  0
 40 41  1  0
 41 42  1  1
 41 43  1  0
 41 44  1  0
 44 45  3  0
M  CHG  1  39   1
M  END
