
     RDKit          3D

 46 51  0  0  0  0  0  0  0  0999 V2000
   10.5490    0.1670    0.5950 C   0  0  0  0  0  0  0  0  0  0  0  0
   10.4500    1.4260    0.9990 C   0  0  0  0  0  0  0  0  0  0  0  0
    9.6160    1.7560    2.1820 C   0  0  0  0  0  0  0  0  0  0  0  0
    9.0370    0.5220    2.6920 N   0  0  0  0  0  0  0  0  0  0  0  0
    9.7410   -0.2030    3.6490 N   0  0  0  0  0  0  0  0  0  0  0  0
    9.2010   -1.4210    4.1640 C   0  0  0  0  0  0  0  0  0  0  0  0
    9.8820   -2.0260    5.0220 O   0  0  0  0  0  0  0  0  0  0  0  0
    7.9500   -1.8930    3.7030 N   0  0  0  0  0  0  0  0  0  0  0  0
    7.1780   -1.1830    2.7150 C   0  0  0  0  0  0  0  0  0  0  0  0
    6.0440   -1.6260    2.2870 C   0  0  0  0  0  0  0  0  0  0  0  0
    5.3170   -3.1850    2.8870 S   0  0  0  0  0  0  0  0  0  0  0  0
    3.9920   -3.3130    1.6540 C   0  0  0  0  0  0  0  0  0  0  0  0
    4.3090   -2.2220    0.7560 N   0  0  0  0  0  0  0  0  0  0  0  0
    3.8600   -2.2470   -0.6430 C   0  0  0  0  0  0  0  0  0  0  0  0
    2.4620   -1.7140   -0.7660 C   0  0  0  0  0  0  0  0  0  0  0  0
    2.1860   -0.3750   -0.8980 C   0  0  0  0  0  0  0  0  0  0  0  0
    0.8730    0.0860   -1.0120 C   0  0  0  0  0  0  0  0  0  0  0  0
   -0.2000   -0.7740   -0.9970 C   0  0  0  0  0  0  0  0  0  0  0  0
   -1.5280   -0.3850   -1.1050 O   0  0  0  0  0  0  0  0  0  0  0  0
   -2.0490   -0.2610   -2.3770 C   0  0  0  0  0  0  0  0  0  0  0  0
   -1.3550   -0.4790   -3.5400 C   0  0  0  0  0  0  0  0  0  0  0  0
   -1.9180   -0.3430   -4.7920 C   0  0  0  0  0  0  0  0  0  0  0  0
   -3.2350    0.0270   -4.8930 C   0  0  0  0  0  0  0  0  0  0  0  0
   -3.8040    0.1650   -6.1540 O   0  0  0  0  0  0  0  0  0  0  0  0
   -5.1390    0.5380   -6.3510 C   0  0  0  0  0  0  0  0  0  0  0  0
   -3.9780    0.2580   -3.7270 C   0  0  0  0  0  0  0  0  0  0  0  0
   -3.3930    0.1160   -2.4970 C   0  0  0  0  0  0  0  0  0  0  0  0
   -4.1100    0.3330   -1.2280 C   0  0  0  0  0  0  0  0  0  0  0  0
   -5.4760    0.7120   -1.4380 N   0  0  1  0  0  0  0  0  0  0  0  0
   -6.3280   -0.3420   -1.9260 C   0  0  0  0  0  0  0  0  0  0  0  0
   -6.0960    1.4110   -0.3480 C   0  0  2  0  0  0  0  0  0  0  0  0
   -5.6040    2.7990   -0.1380 C   0  0  0  0  0  0  0  0  0  0  0  0
   -6.3950    3.1590    1.1370 C   0  0  0  0  0  0  0  0  0  0  0  0
   -6.2680    1.8440    1.8800 C   0  0  0  0  0  0  0  0  0  0  0  0
   -6.3220    1.6690    3.2470 C   0  0  0  0  0  0  0  0  0  0  0  0
   -6.5220    2.8150    4.1920 C   0  0  0  0  0  0  0  0  0  0  0  0
   -6.1810    0.3730    3.7170 C   0  0  0  0  0  0  0  0  0  0  0  0
   -5.9970   -0.6860    2.8540 C   0  0  0  0  0  0  0  0  0  0  0  0
   -5.9470   -0.4800    1.4910 C   0  0  0  0  0  0  0  0  0  0  0  0
   -6.0840    0.8100    0.9690 C   0  0  0  0  0  0  0  0  0  0  0  0
    0.0860   -2.1280   -0.8640 C   0  0  0  0  0  0  0  0  0  0  0  0
    1.3810   -2.5860   -0.7510 C   0  0  0  0  0  0  0  0  0  0  0  0
    5.0320   -1.1830    1.3510 C   0  0  0  0  0  0  0  0  0  0  0  0
    4.8300    0.0520    1.1020 O   0  0  0  0  0  0  0  0  0  0  0  0
    7.7650    0.0440    2.2230 C   0  0  0  0  0  0  0  0  0  0  0  0
    7.2210    0.7750    1.3630 O   0  0  0  0  0  0  0  0  0  0  0  0
  1  2  2  0
  2  3  1  0
  3  4  1  0
  4  5  1  0
  4 45  1  0
  5  6  1  0
  6  7  2  0
  6  8  1  0
  8  9  1  0
  9 10  2  3
  9 45  1  0
 10 11  1  0
 10 43  1  0
 11 12  1  0
 12 13  1  0
 13 14  1  0
 13 43  1  0
 14 15  1  0
 15 16  2  0
 15 42  1  0
 16 17  1  0
 17 18  2  0
 18 19  1  0
 18 41  1  0
 19 20  1  0
 20 21  2  0
 20 27  1  0
 21 22  1  0
 22 23  2  0
 23 24  1  0
 23 26  1  0
 24 25  1  0
 26 27  2  0
 27 28  1  0
 28 29  1  0
 29 30  1  1
 29 31  1  0
 31 32  1  1
 31 40  1  0
 32 33  1  0
 33 34  1  0
 34 35  2  0
 34 40  1  0
 35 36  1  0
 35 37  1  0
 37 38  2  0
 38 39  1  0
 39 40  2  0
 41 42  2  0
 43 44  2  0
 45 46  2  0
M  CHG  1  29   1
M  END
