
     RDKit          3D

 39 43  0  0  0  0  0  0  0  0999 V2000
    5.2320   -4.5490   -2.0080 C   0  0  0  0  0  0  0  0  0  0  0  0
    4.5290   -3.3850   -1.6380 O   0  0  0  0  0  0  0  0  0  0  0  0
    5.1940   -2.1760   -1.5780 C   0  0  0  0  0  0  0  0  0  0  0  0
    6.5260   -2.0690   -1.8690 C   0  0  0  0  0  0  0  0  0  0  0  0
    7.1960   -0.8570   -1.8100 C   0  0  0  0  0  0  0  0  0  0  0  0
    6.4770    0.2660   -1.4430 C   0  0  0  0  0  0  0  0  0  0  0  0
    5.1280    0.1660   -1.1470 C   0  0  0  0  0  0  0  0  0  0  0  0
    4.4850   -1.0340   -1.2100 C   0  0  0  0  0  0  0  0  0  0  0  0
    3.0510   -1.1520   -0.8970 C   0  0  0  0  0  0  0  0  0  0  0  0
    2.5350   -2.2910   -0.9800 O   0  0  0  0  0  0  0  0  0  0  0  0
    2.2880    0.0180   -0.5110 C   0  0  0  0  0  0  0  0  0  0  0  0
    0.9380   -0.1060   -0.2190 C   0  0  0  0  0  0  0  0  0  0  0  0
    0.2470   -1.2770   -0.2640 O   0  0  0  0  0  0  0  0  0  0  0  0
    0.2120    1.0210    0.1500 C   0  0  0  0  0  0  0  0  0  0  0  0
    0.8710    2.2140    0.2100 C   0  0  0  0  0  0  0  0  0  0  0  0
    2.2070    2.3650   -0.0740 C   0  0  0  0  0  0  0  0  0  0  0  0
    2.7720    3.6100    0.0160 O   0  0  0  0  0  0  0  0  0  0  0  0
    2.9440    1.2580   -0.4440 C   0  0  0  0  0  0  0  0  0  0  0  0
    4.3600    1.3690   -0.7540 C   0  0  0  0  0  0  0  0  0  0  0  0
    4.9720    2.4640   -0.7020 O   0  0  0  0  0  0  0  0  0  0  0  0
    0.0470    3.3770    0.6340 C   0  0  0  0  0  0  0  0  0  0  0  0
   -0.6330    2.9400    1.9250 C   0  0  1  0  0  0  0  0  0  0  0  0
    0.4080    2.8280    2.8720 O   0  0  0  0  0  0  0  0  0  0  0  0
   -1.4800    4.0940    2.3520 C   0  0  0  0  0  0  0  0  0  0  0  0
   -2.4470    4.3190    1.6090 O   0  0  0  0  0  0  0  0  0  0  0  0
   -1.2320    4.9230    3.5430 C   0  0  0  0  0  0  0  0  0  0  0  0
   -0.0970    4.4610    4.1970 O   0  0  0  0  0  0  0  0  0  0  0  0
   -1.4280    1.6860    1.8190 C   0  0  0  0  0  0  0  0  0  0  0  0
   -1.2430    0.9640    0.4750 C   0  0  2  0  0  0  0  0  0  0  0  0
   -1.7080   -0.2980    0.5480 O   0  0  0  0  0  0  0  0  0  0  0  0
   -2.8480   -0.5510   -0.2110 C   0  0  1  0  0  0  0  0  0  0  0  0
   -2.7150   -1.5270   -1.3040 C   0  0  0  0  0  0  0  0  0  0  0  0
   -4.0630   -2.0640   -1.7430 C   0  0  2  0  0  0  0  0  0  0  0  0
   -4.9500   -1.0180   -2.2160 N   0  0  0  0  0  0  0  0  0  0  0  0
   -4.7700   -2.7320   -0.5720 C   0  0  2  0  0  0  0  0  0  0  0  0
   -6.1480   -2.6470   -0.7000 O   0  0  0  0  0  0  0  0  0  0  0  0
   -4.2690   -2.1320    0.7330 C   0  0  2  0  0  0  0  0  0  0  0  0
   -5.3260   -2.3540    1.7720 C   0  0  0  0  0  0  0  0  0  0  0  0
   -3.9580   -0.7880    0.5600 O   0  0  0  0  0  0  0  0  0  0  0  0
  1  2  1  0
  2  3  1  0
  3  4  2  0
  3  8  1  0
  4  5  1  0
  5  6  2  0
  6  7  1  0
  7  8  2  0
  7 19  1  0
  8  9  1  0
  9 10  2  0
  9 11  1  0
 11 12  2  0
 11 18  1  0
 12 13  1  0
 12 14  1  0
 14 15  2  0
 14 29  1  0
 15 16  1  0
 15 21  1  0
 16 17  1  0
 16 18  2  0
 18 19  1  0
 19 20  2  0
 21 22  1  0
 22 23  1  1
 22 24  1  0
 22 28  1  0
 24 25  2  0
 24 26  1  0
 26 27  1  0
 28 29  1  0
 29 30  1  1
 31 30  1  1
 31 32  1  0
 31 39  1  0
 32 33  1  0
 33 34  1  1
 33 35  1  0
 35 36  1  6
 35 37  1  0
 37 38  1  1
 37 39  1  0
M  CHG  1  34   1
M  END
