
     RDKit          3D

 39 43  0  0  0  0  0  0  0  0999 V2000
    6.4380   -4.0430   -1.1650 C   0  0  0  0  0  0  0  0  0  0  0  0
    6.3430   -2.5860   -0.8180 C   0  0  0  0  0  0  0  0  0  0  0  0
    7.4820   -1.8160   -0.7730 C   0  0  0  0  0  0  0  0  0  0  0  0
    7.4130   -0.4820   -0.4570 C   0  0  0  0  0  0  0  0  0  0  0  0
    6.2050    0.0900   -0.1840 C   0  0  0  0  0  0  0  0  0  0  0  0
    6.1660    1.4160    0.1260 F   0  0  0  0  0  0  0  0  0  0  0  0
    5.0240   -0.6640   -0.2210 C   0  0  0  0  0  0  0  0  0  0  0  0
    3.8550   -0.1230    0.0430 N   0  0  0  0  0  0  0  0  0  0  0  0
    2.8270    0.4580    0.1940 C   0  0  0  0  0  0  0  0  0  0  0  0
    1.7360    0.1190    1.1040 N   0  0  0  0  0  0  0  0  0  0  0  0
    0.6960    1.0700    0.9690 C   0  0  0  0  0  0  0  0  0  0  0  0
   -0.4630    1.0240    1.6350 C   0  0  0  0  0  0  0  0  0  0  0  0
   -1.4760    2.0420    1.4470 C   0  0  0  0  0  0  0  0  0  0  0  0
   -1.2200    3.3820    1.6280 C   0  0  0  0  0  0  0  0  0  0  0  0
   -2.1770    4.3530    1.4150 C   0  0  0  0  0  0  0  0  0  0  0  0
   -3.4280    3.9490    1.0090 C   0  0  0  0  0  0  0  0  0  0  0  0
   -4.4660    5.0080    0.7780 C   0  0  0  0  0  0  0  0  0  0  0  0
   -3.6910    2.6120    0.8270 C   0  0  0  0  0  0  0  0  0  0  0  0
   -2.7520    1.6280    1.0330 C   0  0  0  0  0  0  0  0  0  0  0  0
   -3.0160    0.2550    0.8610 N   0  0  0  0  0  0  0  0  0  0  0  0
   -3.1100   -0.3370   -0.2550 C   0  0  0  0  0  0  0  0  0  0  0  0
   -2.9900    0.1540   -1.4890 N   0  0  0  0  0  0  0  0  0  0  0  0
   -2.7170    1.5220   -1.9150 C   0  0  0  0  0  0  0  0  0  0  0  0
   -3.1790   -0.9000   -2.3420 C   0  0  0  0  0  0  0  0  0  0  0  0
   -3.4120   -2.0200   -1.5840 C   0  0  0  0  0  0  0  0  0  0  0  0
   -3.3720   -1.6870   -0.2910 N   0  0  0  0  0  0  0  0  0  0  0  0
   -3.5640   -2.5650    0.8140 C   0  0  0  0  0  0  0  0  0  0  0  0
   -2.5090   -3.3230    1.2830 C   0  0  0  0  0  0  0  0  0  0  0  0
   -2.6570   -4.1900    2.3580 C   0  0  0  0  0  0  0  0  0  0  0  0
   -3.8650   -4.3280    2.9980 C   0  0  0  0  0  0  0  0  0  0  0  0
   -4.0120   -5.1790    4.0520 F   0  0  0  0  0  0  0  0  0  0  0  0
   -4.9260   -3.5770    2.5390 C   0  0  0  0  0  0  0  0  0  0  0  0
   -4.7720   -2.7130    1.4660 C   0  0  0  0  0  0  0  0  0  0  0  0
   -5.8300   -2.0110    1.0630 F   0  0  0  0  0  0  0  0  0  0  0  0
    1.1530    2.0080   -0.0400 C   0  0  0  0  0  0  0  0  0  0  0  0
    0.5070    3.0170   -0.4580 O   0  0  0  0  0  0  0  0  0  0  0  0
    2.4390    1.6590   -0.5230 N   0  0  0  0  0  0  0  0  0  0  0  0
    3.2440    2.3370   -1.5310 C   0  0  0  0  0  0  0  0  0  0  0  0
    5.1340   -2.0210   -0.5470 C   0  0  0  0  0  0  0  0  0  0  0  0
  1  2  1  0
  2  3  2  0
  2 39  1  0
  3  4  1  0
  4  5  2  0
  5  6  1  0
  5  7  1  0
  7  8  1  0
  7 39  2  0
  8  9  2  3
  9 10  1  0
  9 37  1  0
 10 11  1  0
 11 12  2  3
 11 35  1  0
 12 13  1  0
 13 14  2  0
 13 19  1  0
 14 15  1  0
 15 16  2  0
 16 17  1  0
 16 18  1  0
 18 19  2  0
 19 20  1  0
 20 21  2  3
 21 22  1  0
 21 26  1  0
 22 23  1  0
 22 24  1  0
 24 25  2  0
 25 26  1  0
 26 27  1  0
 27 28  2  0
 27 33  1  0
 28 29  1  0
 29 30  2  0
 30 31  1  0
 30 32  1  0
 32 33  2  0
 33 34  1  0
 35 36  2  0
 35 37  1  0
 37 38  1  0
M  END
