
     RDKit          3D

 39 43  0  0  0  0  0  0  0  0999 V2000
    9.5520    2.1210    0.9550 C   0  0  0  0  0  0  0  0  0  0  0  0
    9.5570    1.4080   -0.1720 C   0  0  0  0  0  0  0  0  0  0  0  0
    8.2000    0.9510   -0.6350 C   0  0  0  0  0  0  0  0  0  0  0  0
    7.2790    0.6040   -1.0020 C   0  0  0  0  0  0  0  0  0  0  0  0
    6.0450    0.1940   -1.4170 F   0  0  0  0  0  0  0  0  0  0  0  0
    6.4340    2.1200   -0.5430 C   0  0  0  0  0  0  0  0  0  0  0  0
    7.1410    3.1230   -0.5230 F   0  0  0  0  0  0  0  0  0  0  0  0
    5.1760    1.9690   -0.3620 C   0  0  0  0  0  0  0  0  0  0  0  0
    4.3480    0.8180   -0.3840 C   0  0  0  0  0  0  0  0  0  0  0  0
    3.0320    0.6560   -0.3000 C   0  0  0  0  0  0  0  0  0  0  0  0
    1.9820    1.3820   -0.2020 N   0  0  0  0  0  0  0  0  0  0  0  0
    0.9030    0.8110    0.4400 C   0  0  0  0  0  0  0  0  0  0  0  0
   -0.1570    1.2850    0.4810 N   0  0  0  0  0  0  0  0  0  0  0  0
   -1.4760    1.7030    0.6280 C   0  0  0  0  0  0  0  0  0  0  0  0
   -2.4120    2.1690    0.7960 N   0  0  0  0  0  0  0  0  0  0  0  0
   -3.8530    1.9850    0.7230 C   0  0  0  0  0  0  0  0  0  0  0  0
   -4.6670    2.9050    1.0520 O   0  0  0  0  0  0  0  0  0  0  0  0
   -4.2730    0.7360    0.2710 N   0  0  0  0  0  0  0  0  0  0  0  0
   -5.4510    0.2070   -0.2590 C   0  0  0  0  0  0  0  0  0  0  0  0
   -5.6160    0.3170   -1.7360 C   0  0  0  0  0  0  0  0  0  0  0  0
   -4.8610    1.0790   -2.5310 C   0  0  0  0  0  0  0  0  0  0  0  0
   -5.0640    1.2180   -3.8900 C   0  0  0  0  0  0  0  0  0  0  0  0
   -4.2310    2.0220   -4.6010 F   0  0  0  0  0  0  0  0  0  0  0  0
   -6.0710    0.5760   -4.5180 C   0  0  0  0  0  0  0  0  0  0  0  0
   -6.9300   -0.2790   -3.6740 C   0  0  0  0  0  0  0  0  0  0  0  0
   -6.6520   -0.3540   -2.3420 C   0  0  0  0  0  0  0  0  0  0  0  0
   -7.5160   -1.2520   -1.4980 C   0  0  0  0  0  0  0  0  0  0  0  0
   -3.0990   -0.2280    0.4970 C   0  0  0  0  0  0  0  0  0  0  0  0
   -2.0460    0.2910   -0.3240 C   0  0  0  0  0  0  0  0  0  0  0  0
    1.3980   -0.4360    0.7750 N   0  0  0  0  0  0  0  0  0  0  0  0
    2.6420   -0.5890    0.3500 C   0  0  0  0  0  0  0  0  0  0  0  0
    3.2850   -1.6750    0.5190 N   0  0  0  0  0  0  0  0  0  0  0  0
    2.8870   -2.8770    1.1490 C   0  0  0  0  0  0  0  0  0  0  0  0
    1.6060   -2.6610    1.8640 C   0  0  0  0  0  0  0  0  0  0  0  0
    1.1350   -3.5610    2.7650 C   0  0  0  0  0  0  0  0  0  0  0  0
   -0.0540   -3.3860    3.4100 C   0  0  0  0  0  0  0  0  0  0  0  0
   -0.7940   -2.2410    3.1200 C   0  0  0  0  0  0  0  0  0  0  0  0
   -0.3290   -1.3110    2.2060 C   0  0  0  0  0  0  0  0  0  0  0  0
    0.8630   -1.4960    1.5680 C   0  0  0  0  0  0  0  0  0  0  0  0
  1  2  2  0
  2  3  1  0
  3  4  2  3
  4  5  1  0
  4  6  1  0
  6  7  1  0
  6  8  2  3
  8  9  1  0
  9 10  2  3
 10 11  1  0
 10 31  1  0
 11 12  1  0
 12 13  2  3
 12 30  1  0
 13 14  1  0
 14 15  2  0
 14 29  1  0
 15 16  1  0
 16 17  2  0
 16 18  1  0
 18 19  1  0
 18 28  1  0
 19 20  1  0
 20 21  2  0
 20 26  1  0
 21 22  1  0
 22 23  1  0
 22 24  2  0
 24 25  1  0
 25 26  2  0
 26 27  1  0
 28 29  1  0
 30 31  1  0
 30 39  1  0
 31 32  2  0
 32 33  1  0
 33 34  1  0
 34 35  2  0
 34 39  1  0
 35 36  1  0
 36 37  2  0
 37 38  1  0
 38 39  2  0
M  END
