
     RDKit          3D

 39 42  0  0  0  0  0  0  0  0999 V2000
    3.2460   -1.6360   -1.2670 C   0  0  0  0  0  0  0  0  0  0  0  0
    4.1180   -0.4860   -0.9360 C   0  0  0  0  0  0  0  0  0  0  0  0
    5.2100   -0.2570   -1.7640 C   0  0  0  0  0  0  0  0  0  0  0  0
    5.4420   -1.0950   -2.8440 O   0  0  0  0  0  0  0  0  0  0  0  0
    6.0610    0.7980   -1.5140 C   0  0  0  0  0  0  0  0  0  0  0  0
    5.7850    1.5880   -0.4410 C   0  0  0  0  0  0  0  0  0  0  0  0
    4.7070    1.3710    0.3860 C   0  0  0  0  0  0  0  0  0  0  0  0
    4.4820    2.2200    1.4720 O   0  0  0  0  0  0  0  0  0  0  0  0
    3.8320    0.3030    0.1460 C   0  0  0  0  0  0  0  0  0  0  0  0
    2.7520    0.1200    1.0090 O   0  0  0  0  0  0  0  0  0  0  0  0
    1.5010    0.7040    0.7880 C   0  0  0  0  0  0  0  0  0  0  0  0
    0.4710    0.4700    1.8450 C   0  0  2  0  0  0  0  0  0  0  0  0
    0.0980   -0.8080    2.0750 O   0  0  0  0  0  0  0  0  0  0  0  0
    1.1740   -1.6690    2.0360 C   0  0  0  0  0  0  0  0  0  0  0  0
    0.7910   -3.0600    2.5340 C   0  0  0  0  0  0  0  0  0  0  0  0
    1.1230   -4.1020    1.4940 C   0  0  0  0  0  0  0  0  0  0  0  0
   -0.0280   -4.2310    0.5500 C   0  0  2  0  0  0  0  0  0  0  0  0
   -0.3590   -5.5700    0.2960 O   0  0  0  0  0  0  0  0  0  0  0  0
    0.3190   -3.5930   -0.7320 C   0  0  0  0  0  0  0  0  0  0  0  0
    1.1560   -4.0880   -1.5250 O   0  0  0  0  0  0  0  0  0  0  0  0
   -0.2960   -2.4000   -1.0850 O   0  0  0  0  0  0  0  0  0  0  0  0
   -1.6050   -2.0620   -0.5920 C   0  0  0  0  0  0  0  0  0  0  0  0
   -2.2370   -1.0320   -1.4160 C   0  0  1  0  0  0  0  0  0  0  0  0
   -3.4130   -1.5610   -2.0440 O   0  0  0  0  0  0  0  0  0  0  0  0
   -2.5550    0.3200   -0.8130 C   0  0  1  0  0  0  0  0  0  0  0  0
   -3.5750    0.8820   -1.8690 C   0  0  0  0  0  0  0  0  0  0  0  0
   -4.2780    2.0940   -1.4490 C   0  0  0  0  0  0  0  0  0  0  0  0
   -4.3700    2.4250   -0.0890 N   0  0  0  0  0  0  0  0  0  0  0  0
   -4.0800    1.4310    0.8650 C   0  0  0  0  0  0  0  0  0  0  0  0
   -3.3930    0.1800    0.3800 C   0  0  2  0  0  0  0  0  0  0  0  0
   -2.8910   -0.5070    1.4670 O   0  0  0  0  0  0  0  0  0  0  0  0
   -1.4740    1.1830   -0.8350 O   0  0  0  0  0  0  0  0  0  0  0  0
   -1.1530    2.4100   -0.3030 C   0  0  0  0  0  0  0  0  0  0  0  0
   -1.2410    3.5790   -1.0410 C   0  0  0  0  0  0  0  0  0  0  0  0
   -0.9550    4.8510   -0.5860 C   0  0  0  0  0  0  0  0  0  0  0  0
   -0.5470    4.9800    0.7080 C   0  0  0  0  0  0  0  0  0  0  0  0
   -0.4460    3.8390    1.4660 C   0  0  0  0  0  0  0  0  0  0  0  0
   -0.7230    2.5540    1.0320 C   0  0  0  0  0  0  0  0  0  0  0  0
   -0.5840    1.4300    1.8530 O   0  0  0  0  0  0  0  0  0  0  0  0
  1  2  1  0
  2  3  2  0
  2  9  1  0
  3  4  1  0
  3  5  1  0
  5  6  2  0
  6  7  1  0
  7  8  1  0
  7  9  2  0
  9 10  1  0
 10 11  1  0
 12 11  1  6
 12 13  1  0
 12 39  1  0
 13 14  1  0
 14 15  1  0
 15 16  1  0
 16 17  1  0
 17 18  1  6
 17 19  1  0
 19 20  2  0
 19 21  1  0
 21 22  1  0
 22 23  1  0
 23 24  1  1
 23 25  1  0
 25 26  1  6
 25 30  1  0
 25 32  1  0
 26 27  1  0
 27 28  1  0
 28 29  1  0
 29 30  1  0
 30 31  1  1
 32 33  1  0
 33 34  2  0
 33 38  1  0
 34 35  1  0
 35 36  2  0
 36 37  1  0
 37 38  2  0
 38 39  1  0
M  CHG  1  28   1
M  END
