
     RDKit          3D

 38 41  0  0  0  0  0  0  0  0999 V2000
   -2.7320   -3.0120    0.0130 C   0  0  0  0  0  0  0  0  0  0  0  0
   -2.1200   -1.6300    0.0450 C   0  0  2  0  0  0  0  0  0  0  0  0
   -1.7310   -1.3310    1.4390 C   0  0  0  0  0  0  0  0  0  0  0  0
   -3.1840   -0.7720   -0.3530 O   0  0  0  0  0  0  0  0  0  0  0  0
   -2.6470    0.4160   -0.7540 C   0  0  1  0  0  0  0  0  0  0  0  0
   -3.3450    1.0770   -1.9240 C   0  0  0  0  0  0  0  0  0  0  0  0
   -4.7280    1.4770   -1.6020 C   0  0  0  0  0  0  0  0  0  0  0  0
   -5.0620    1.7610   -0.1970 C   0  0  1  0  0  0  0  0  0  0  0  0
   -5.2610    3.2470    0.0600 C   0  0  0  0  0  0  0  0  0  0  0  0
   -6.1440    3.7040   -0.9200 O   0  0  0  0  0  0  0  0  0  0  0  0
   -6.4310    1.1280    0.0860 C   0  0  0  0  0  0  0  0  0  0  0  0
   -6.8860    1.3360    1.4600 C   0  0  0  0  0  0  0  0  0  0  0  0
   -6.3790    0.6520    2.3850 O   0  0  0  0  0  0  0  0  0  0  0  0
   -7.8610    2.2590    1.8090 O   0  0  0  0  0  0  0  0  0  0  0  0
   -4.1960    1.2610    0.7490 O   0  0  0  0  0  0  0  0  0  0  0  0
   -2.8690    1.4320    0.3750 C   0  0  0  0  0  0  0  0  0  0  0  0
   -1.1700    0.1810   -1.0100 C   0  0  0  0  0  0  0  0  0  0  0  0
   -1.1370   -1.3470   -1.0300 C   0  0  2  0  0  0  0  0  0  0  0  0
   -1.8470   -1.7420   -2.3410 C   0  0  0  0  0  0  0  0  0  0  0  0
    0.2160   -1.8980   -0.9420 C   0  0  1  0  0  0  0  0  0  0  0  0
    0.2790   -3.3550   -0.8980 N   0  0  0  0  0  0  0  0  0  0  0  0
    0.9770   -1.5410   -2.2310 C   0  0  0  0  0  0  0  0  0  0  0  0
    0.4120   -2.1090   -3.3540 O   0  0  0  0  0  0  0  0  0  0  0  0
    1.0360   -1.3650    0.1680 C   0  0  0  0  0  0  0  0  0  0  0  0
    1.5140   -2.0930    1.2430 C   0  0  0  0  0  0  0  0  0  0  0  0
    2.2230   -1.2170    2.0340 C   0  0  0  0  0  0  0  0  0  0  0  0
    2.1530    0.0250    1.4110 C   0  0  0  0  0  0  0  0  0  0  0  0
    2.7530    1.2970    1.8710 C   0  0  0  0  0  0  0  0  0  0  0  0
    4.1290    1.3060    1.8420 O   0  0  0  0  0  0  0  0  0  0  0  0
    4.7040    1.1330    0.5900 C   0  0  1  0  0  0  0  0  0  0  0  0
    5.6230    2.2670    0.2470 C   0  0  0  0  0  0  0  0  0  0  0  0
    6.7620    1.6590   -0.5170 C   0  0  1  0  0  0  0  0  0  0  0  0
    7.9980    1.9760    0.0630 O   0  0  0  0  0  0  0  0  0  0  0  0
    6.5750    0.1520   -0.4900 C   0  0  1  0  0  0  0  0  0  0  0  0
    7.8760   -0.5390   -0.1170 C   0  0  0  0  0  0  0  0  0  0  0  0
    7.6540   -1.9190   -0.1120 O   0  0  0  0  0  0  0  0  0  0  0  0
    5.6150   -0.0640    0.6820 C   0  0  0  0  0  0  0  0  0  0  0  0
    1.4510   -0.1470    0.3420 O   0  0  0  0  0  0  0  0  0  0  0  0
  2  1  1  1
  2  3  1  0
  2  4  1  0
  2 18  1  0
  4  5  1  0
  5  6  1  6
  5 16  1  0
  5 17  1  0
  6  7  1  0
  7  8  1  0
  8  9  1  6
  8 11  1  0
  8 15  1  0
  9 10  1  0
 11 12  1  0
 12 13  2  0
 12 14  1  0
 15 16  1  0
 17 18  1  0
 18 19  1  6
 18 20  1  0
 20 21  1  1
 20 22  1  0
 20 24  1  0
 22 23  1  0
 24 25  2  0
 24 38  1  0
 25 26  1  0
 26 27  2  0
 27 28  1  0
 27 38  1  0
 28 29  1  0
 30 29  1  1
 30 31  1  0
 30 37  1  0
 31 32  1  0
 32 33  1  1
 32 34  1  0
 34 35  1  1
 34 37  1  0
 35 36  1  0
M  CHG  1  21   1
M  END
