
     RDKit          3D

 18 19  0  0  0  0  0  0  0  0999 V2000
   -2.5610   -2.3500   -1.2770 C   0  0  0  0  0  0  0  0  0  0  0  0
   -1.8940   -2.1110    0.0970 C   0  0  0  0  0  0  0  0  0  0  0  0
   -1.6920   -0.6830    0.3010 C   0  0  0  0  0  0  0  0  0  0  0  0
   -2.7110    0.0700    0.7900 C   0  0  0  0  0  0  0  0  0  0  0  0
   -3.9300   -0.5390    1.3910 C   0  0  0  0  0  0  0  0  0  0  0  0
   -2.5020    1.4270    0.8480 C   0  0  0  0  0  0  0  0  0  0  0  0
   -1.3070    2.0400    0.4740 C   0  0  0  0  0  0  0  0  0  0  0  0
   -1.2150    3.5130    0.4930 C   0  0  0  0  0  0  0  0  0  0  0  0
   -0.2810    1.2120    0.0190 C   0  0  0  0  0  0  0  0  0  0  0  0
   -0.4630   -0.1310   -0.0880 C   0  0  0  0  0  0  0  0  0  0  0  0
    0.5440   -1.0460   -0.6650 C   0  0  0  0  0  0  0  0  0  0  0  0
    1.7630   -0.9250    0.0330 N   0  0  0  0  0  0  0  0  0  0  0  0
    3.0130   -0.3900   -0.2280 C   0  0  0  0  0  0  0  0  0  0  0  0
    3.9680   -0.2180    0.7130 C   0  0  0  0  0  0  0  0  0  0  0  0
    5.1600    0.3430    0.0750 C   0  0  2  0  0  0  0  0  0  0  0  0
    5.6100    1.9270    0.7820 Cl  0  0  0  0  0  0  0  0  0  0  0  0
    4.7770    0.5510   -1.3590 C   0  0  0  0  0  0  0  0  0  0  0  0
    3.5550    0.0990   -1.4650 C   0  0  0  0  0  0  0  0  0  0  0  0
  1  2  1  0
  2  3  1  0
  3  4  2  0
  3 10  1  0
  4  5  1  0
  4  6  1  0
  6  7  2  0
  7  8  1  0
  7  9  1  0
  9 10  2  0
 10 11  1  0
 11 12  1  0
 12 13  1  0
 13 14  2  0
 13 18  1  0
 14 15  1  0
 15 16  1  1
 15 17  1  0
 17 18  2  0
M  END
