
     RDKit          3D

 23 25  0  0  0  0  0  0  0  0999 V2000
   -4.3730    2.8730   -0.5160 N   0  0  0  0  0  0  0  0  0  0  0  0
   -4.9660    1.6970    0.0810 C   0  0  0  0  0  0  0  0  0  0  0  0
   -6.1620    1.7640    0.4130 O   0  0  0  0  0  0  0  0  0  0  0  0
   -4.1850    0.4940    0.2750 C   0  0  0  0  0  0  0  0  0  0  0  0
   -2.8450    0.3510    0.0370 C   0  0  0  0  0  0  0  0  0  0  0  0
   -2.5330   -1.0120    0.3150 C   0  0  0  0  0  0  0  0  0  0  0  0
   -1.3620   -1.6940    0.2010 C   0  0  0  0  0  0  0  0  0  0  0  0
   -0.1030   -1.0260   -0.1960 C   0  0  0  0  0  0  0  0  0  0  0  0
    0.4190   -1.3540   -1.2460 O   0  0  0  0  0  0  0  0  0  0  0  0
    0.4040   -0.0320    0.7210 N   0  0  0  0  0  0  0  0  0  0  0  0
    1.5960    0.6410    0.4440 C   0  0  0  0  0  0  0  0  0  0  0  0
    1.8850    1.7860    1.2070 C   0  0  0  0  0  0  0  0  0  0  0  0
    3.0460    2.4630    0.9610 C   0  0  0  0  0  0  0  0  0  0  0  0
    3.9670    2.1020    0.0030 C   0  0  0  0  0  0  0  0  0  0  0  0
    3.6740    0.9810   -0.7380 C   0  0  0  0  0  0  0  0  0  0  0  0
    4.5840    0.4920   -1.8060 C   0  0  0  0  0  0  0  0  0  0  0  0
    5.5590   -0.4680   -1.3230 N   0  0  0  0  0  0  0  0  0  0  0  0
    2.4900    0.2630   -0.5060 C   0  0  0  0  0  0  0  0  0  0  0  0
   -1.2860   -3.0710    0.4720 C   0  0  0  0  0  0  0  0  0  0  0  0
   -2.4740   -3.7110    0.8750 C   0  0  0  0  0  0  0  0  0  0  0  0
   -3.6370   -2.9850    0.9790 C   0  0  0  0  0  0  0  0  0  0  0  0
   -3.6870   -1.6070    0.6940 C   0  0  0  0  0  0  0  0  0  0  0  0
   -4.6740   -0.7190    0.6760 N   0  0  0  0  0  0  0  0  0  0  0  0
  1  2  1  0
  2  3  2  0
  2  4  1  0
  4  5  2  0
  4 23  1  0
  5  6  1  0
  6  7  2  0
  6 22  1  0
  7  8  1  0
  7 19  1  0
  8  9  2  0
  8 10  1  0
 10 11  1  0
 11 12  2  0
 11 18  1  0
 12 13  1  0
 13 14  2  0
 14 15  1  0
 15 16  1  0
 15 18  2  0
 16 17  1  0
 19 20  2  0
 20 21  1  0
 21 22  2  0
 22 23  1  0
M  CHG  1  17   1
M  END
