
     RDKit          3D

 18 19  0  0  0  0  0  0  0  0999 V2000
   -5.1920    0.1180   -0.6680 C   0  0  0  0  0  0  0  0  0  0  0  0
   -4.1440    0.7660    0.1690 C   0  0  2  0  0  0  0  0  0  0  0  0
   -3.6230    2.0520   -0.4170 C   0  0  0  0  0  0  0  0  0  0  0  0
   -3.0180   -0.2010    0.4260 C   0  0  0  0  0  0  0  0  0  0  0  0
   -1.7450    0.0960    0.1510 C   0  0  0  0  0  0  0  0  0  0  0  0
   -0.7050   -0.8540    0.4090 C   0  0  0  0  0  0  0  0  0  0  0  0
   -1.0440   -2.1650    0.7560 C   0  0  0  0  0  0  0  0  0  0  0  0
   -0.0960   -3.1350    1.0300 C   0  0  0  0  0  0  0  0  0  0  0  0
    1.2160   -2.7840    0.9550 C   0  0  0  0  0  0  0  0  0  0  0  0
    1.6200   -1.5140    0.6220 C   0  0  0  0  0  0  0  0  0  0  0  0
    2.9540   -1.1910    0.5670 C   0  0  0  0  0  0  0  0  0  0  0  0
    3.3990    0.0710    0.2510 C   0  0  0  0  0  0  0  0  0  0  0  0
    4.8640    0.3270    0.2160 C   0  0  0  0  0  0  0  0  0  0  0  0
    5.1560    1.7030   -0.1330 N   0  0  0  0  0  0  0  0  0  0  0  0
    2.4780    1.0210   -0.0140 C   0  0  0  0  0  0  0  0  0  0  0  0
    1.1050    0.7160    0.0340 C   0  0  0  0  0  0  0  0  0  0  0  0
    0.0190    2.0270   -0.2830 Cl  0  0  0  0  0  0  0  0  0  0  0  0
    0.6530   -0.5420    0.3470 C   0  0  0  0  0  0  0  0  0  0  0  0
  2  1  1  6
  2  3  1  0
  2  4  1  0
  4  5  2  3
  5  6  1  0
  6  7  2  0
  6 18  1  0
  7  8  1  0
  8  9  2  0
  9 10  1  0
 10 11  2  0
 10 18  1  0
 11 12  1  0
 12 13  1  0
 12 15  2  0
 13 14  1  0
 15 16  1  0
 16 17  1  0
 16 18  2  0
M  CHG  1  14   1
M  END
