
     RDKit          3D

 18 19  0  0  0  0  0  0  0  0999 V2000
    6.6410    1.2490   -0.8960 C   0  0  0  0  0  0  0  0  0  0  0  0
    5.9140    0.3880   -0.1960 C   0  0  0  0  0  0  0  0  0  0  0  0
    4.4670    0.4670   -0.1250 C   0  0  0  0  0  0  0  0  0  0  0  0
    3.5900    1.7250   -0.9940 Cl  0  0  0  0  0  0  0  0  0  0  0  0
    3.7700   -0.3960    0.5730 C   0  0  0  0  0  0  0  0  0  0  0  0
    2.3140   -0.3970    0.7040 C   0  0  0  0  0  0  0  0  0  0  0  0
    1.5550    0.7310    0.9070 C   0  0  0  0  0  0  0  0  0  0  0  0
    0.1700    0.6980    1.0120 C   0  0  0  0  0  0  0  0  0  0  0  0
   -0.5220   -0.4910    0.9160 C   0  0  0  0  0  0  0  0  0  0  0  0
   -2.0000   -0.5610    1.0280 C   0  0  0  0  0  0  0  0  0  0  0  0
   -2.6790   -0.3950   -0.3070 C   0  0  2  0  0  0  0  0  0  0  0  0
   -2.3280   -1.3750   -1.2840 N   0  0  0  0  0  0  0  0  0  0  0  0
   -2.4840    0.9620   -0.8840 C   0  0  0  0  0  0  0  0  0  0  0  0
   -3.5330    1.7370   -0.6340 C   0  0  0  0  0  0  0  0  0  0  0  0
   -4.5690    1.0150    0.1370 C   0  0  0  0  0  0  0  0  0  0  0  0
   -4.1910   -0.4360   -0.0930 C   0  0  0  0  0  0  0  0  0  0  0  0
    0.2300   -1.6300    0.7130 C   0  0  0  0  0  0  0  0  0  0  0  0
    1.6020   -1.6000    0.6090 C   0  0  0  0  0  0  0  0  0  0  0  0
  1  2  2  0
  2  3  1  0
  3  4  1  0
  3  5  2  3
  5  6  1  0
  6  7  2  0
  6 18  1  0
  7  8  1  0
  8  9  2  0
  9 10  1  0
  9 17  1  0
 10 11  1  0
 11 12  1  6
 11 13  1  0
 11 16  1  0
 13 14  2  0
 14 15  1  0
 15 16  1  0
 17 18  2  0
M  CHG  1  12   1
M  END
