
     RDKit          3D

 24 26  0  0  0  0  0  0  0  0999 V2000
    3.0860   -1.9830    0.8010 N   0  0  0  0  0  0  0  0  0  0  0  0
    2.1870   -1.0950    0.6980 C   0  0  0  0  0  0  0  0  0  0  0  0
    2.4650    0.3040    0.6990 N   0  0  0  0  0  0  0  0  0  0  0  0
    3.7540    0.7100    0.2570 C   0  0  0  0  0  0  0  0  0  0  0  0
    4.5740    0.1530   -0.6080 C   0  0  0  0  0  0  0  0  0  0  0  0
    5.8280    0.9430   -0.7650 C   0  0  0  0  0  0  0  0  0  0  0  0
    5.6010    2.0810    0.1670 C   0  0  0  0  0  0  0  0  0  0  0  0
    4.4320    1.9340    0.7340 C   0  0  0  0  0  0  0  0  0  0  0  0
    3.9070    2.7910    1.6370 F   0  0  0  0  0  0  0  0  0  0  0  0
    0.8220   -1.4950    0.5990 N   0  0  0  0  0  0  0  0  0  0  0  0
    0.4200   -2.4670   -0.4030 C   0  0  0  0  0  0  0  0  0  0  0  0
   -0.7970   -2.0880   -1.1430 C   0  0  0  0  0  0  0  0  0  0  0  0
   -1.5240   -0.9830   -0.4780 N   0  0  0  0  0  0  0  0  0  0  0  0
   -2.7760   -0.7460   -1.1080 C   0  0  0  0  0  0  0  0  0  0  0  0
   -3.5580    0.3780   -0.5620 C   0  0  0  0  0  0  0  0  0  0  0  0
   -4.9110    0.2690   -0.2490 C   0  0  0  0  0  0  0  0  0  0  0  0
   -5.6700    1.3770    0.1380 C   0  0  0  0  0  0  0  0  0  0  0  0
   -6.9910    1.3050    0.4150 F   0  0  0  0  0  0  0  0  0  0  0  0
   -5.0280    2.6030    0.2050 C   0  0  0  0  0  0  0  0  0  0  0  0
   -3.6830    2.7450   -0.0960 C   0  0  0  0  0  0  0  0  0  0  0  0
   -2.9650    1.6250   -0.4760 C   0  0  0  0  0  0  0  0  0  0  0  0
   -1.6300    1.6910   -0.7450 F   0  0  0  0  0  0  0  0  0  0  0  0
   -1.5670   -1.2430    0.9140 C   0  0  0  0  0  0  0  0  0  0  0  0
   -0.1780   -0.9350    1.4810 C   0  0  0  0  0  0  0  0  0  0  0  0
  1  2  2  0
  2  3  1  0
  2 10  1  0
  3  4  1  0
  4  5  2  0
  4  8  1  0
  5  6  1  0
  6  7  1  0
  7  8  2  0
  8  9  1  0
 10 11  1  0
 10 24  1  0
 11 12  1  0
 12 13  1  0
 13 14  1  0
 13 23  1  0
 14 15  1  0
 15 16  2  0
 15 21  1  0
 16 17  1  0
 17 18  1  0
 17 19  2  0
 19 20  1  0
 20 21  2  0
 21 22  1  0
 23 24  1  0
M  END
