
     RDKit          3D

 24 26  0  0  0  0  0  0  0  0999 V2000
   -6.7420   -1.4910   -0.1000 F   0  0  0  0  0  0  0  0  0  0  0  0
   -5.8880   -0.4420   -0.3620 C   0  0  1  0  0  0  0  0  0  0  0  0
   -6.0170   -0.1330   -1.6940 F   0  0  0  0  0  0  0  0  0  0  0  0
   -6.2600    0.5920    0.4700 F   0  0  0  0  0  0  0  0  0  0  0  0
   -4.4580   -0.8460   -0.0960 C   0  0  0  0  0  0  0  0  0  0  0  0
   -3.4850    0.0310   -0.1890 C   0  0  0  0  0  0  0  0  0  0  0  0
   -3.7650    1.4130   -0.5480 C   0  0  0  0  0  0  0  0  0  0  0  0
   -2.7420    2.2540   -0.6190 C   0  0  0  0  0  0  0  0  0  0  0  0
   -1.4190    1.8330   -0.3520 N   0  0  0  0  0  0  0  0  0  0  0  0
   -1.2370    0.6940    0.5900 C   0  0  0  0  0  0  0  0  0  0  0  0
   -2.0710   -0.4130    0.0880 C   0  0  0  0  0  0  0  0  0  0  0  0
   -1.7650   -1.6460   -0.1530 C   0  0  0  0  0  0  0  0  0  0  0  0
   -0.5410   -2.3930   -0.0070 C   0  0  0  0  0  0  0  0  0  0  0  0
    0.6380   -1.7120    0.4980 C   0  0  0  0  0  0  0  0  0  0  0  0
    1.5930   -1.1030   -0.2760 N   0  0  0  0  0  0  0  0  0  0  0  0
    2.5500   -0.6200    0.5320 C   0  0  0  0  0  0  0  0  0  0  0  0
    3.7440    0.0960    0.1250 C   0  0  0  0  0  0  0  0  0  0  0  0
    4.6760    0.5570    1.0300 C   0  0  0  0  0  0  0  0  0  0  0  0
    5.8180    1.2410    0.6570 C   0  0  0  0  0  0  0  0  0  0  0  0
    6.0350    1.4730   -0.6870 C   0  0  0  0  0  0  0  0  0  0  0  0
    5.1110    1.0180   -1.6100 C   0  0  0  0  0  0  0  0  0  0  0  0
    3.9830    0.3400   -1.2040 C   0  0  0  0  0  0  0  0  0  0  0  0
    2.1730   -0.9360    1.7810 N   0  0  0  0  0  0  0  0  0  0  0  0
    1.0440   -1.5830    1.7860 N   0  0  0  0  0  0  0  0  0  0  0  0
  2  1  1  1
  2  3  1  0
  2  4  1  0
  2  5  1  0
  5  6  2  3
  6  7  1  0
  6 11  1  0
  7  8  2  0
  8  9  1  0
  9 10  1  0
 10 11  1  0
 11 12  2  3
 12 13  1  0
 13 14  1  0
 14 15  2  0
 14 24  1  0
 15 16  1  0
 16 17  1  0
 16 23  2  0
 17 18  2  0
 17 22  1  0
 18 19  1  0
 19 20  2  0
 20 21  1  0
 21 22  2  0
 23 24  1  0
M  END
