
     RDKit          3D

 27 29  0  0  0  0  0  0  0  0999 V2000
   -3.9530   -0.0870    1.2170 C   0  0  0  0  0  0  0  0  0  0  0  0
   -3.7470    1.3430    0.7950 C   0  0  2  0  0  0  0  0  0  0  0  0
   -5.1330    1.8480    0.3720 C   0  0  0  0  0  0  0  0  0  0  0  0
   -2.7770    1.5740   -0.3020 C   0  0  2  0  0  0  0  0  0  0  0  0
   -1.4340    1.1550   -0.0910 N   0  0  0  0  0  0  0  0  0  0  0  0
   -0.9790   -0.1850   -0.1620 C   0  0  0  0  0  0  0  0  0  0  0  0
    0.3160   -0.4850    0.0770 N   0  0  0  0  0  0  0  0  0  0  0  0
    0.8490   -1.7060    0.0100 C   0  0  0  0  0  0  0  0  0  0  0  0
    2.1990   -1.9560    0.2830 N   0  0  0  0  0  0  0  0  0  0  0  0
    3.1980   -1.0150    0.6290 C   0  0  0  0  0  0  0  0  0  0  0  0
    4.4070   -1.4790    1.1060 C   0  0  0  0  0  0  0  0  0  0  0  0
    5.4190   -0.6120    1.4460 C   0  0  0  0  0  0  0  0  0  0  0  0
    5.2190    0.7420    1.3070 C   0  0  0  0  0  0  0  0  0  0  0  0
    4.0370    1.2710    0.8370 C   0  0  0  0  0  0  0  0  0  0  0  0
    3.8100    2.7330    0.6830 C   0  0  0  0  0  0  0  0  0  0  0  0
    4.2080    3.2080   -0.6240 N   0  0  0  0  0  0  0  0  0  0  0  0
    3.0380    0.3420    0.5050 C   0  0  0  0  0  0  0  0  0  0  0  0
    0.0020   -2.7430   -0.3310 C   0  0  0  0  0  0  0  0  0  0  0  0
    0.3880   -4.0520   -0.4440 C   0  0  0  0  0  0  0  0  0  0  0  0
   -0.5050   -5.0680   -0.7930 C   0  0  0  0  0  0  0  0  0  0  0  0
   -1.8280   -4.7980   -1.0410 C   0  0  0  0  0  0  0  0  0  0  0  0
   -2.2310   -3.4990   -0.9330 C   0  0  0  0  0  0  0  0  0  0  0  0
   -1.3540   -2.4870   -0.5890 C   0  0  0  0  0  0  0  0  0  0  0  0
   -1.7640   -1.2140   -0.4880 N   0  0  0  0  0  0  0  0  0  0  0  0
   -2.8250    3.0250   -0.7040 C   0  0  0  0  0  0  0  0  0  0  0  0
   -1.7420    3.6500   -0.7790 O   0  0  0  0  0  0  0  0  0  0  0  0
   -4.0090    3.6710   -0.9870 O   0  0  0  0  0  0  0  0  0  0  0  0
  2  1  1  6
  2  3  1  0
  2  4  1  0
  4  5  1  1
  4 25  1  0
  5  6  1  0
  6  7  2  0
  6 24  1  0
  7  8  1  0
  8  9  1  0
  8 18  2  0
  9 10  1  0
 10 11  2  0
 10 17  1  0
 11 12  1  0
 12 13  2  0
 13 14  1  0
 14 15  1  0
 14 17  2  0
 15 16  1  0
 18 19  1  0
 18 23  1  0
 19 20  2  0
 20 21  1  0
 21 22  2  0
 22 23  1  0
 23 24  2  0
 25 26  2  0
 25 27  1  0
M  CHG  1  16   1
M  END
