
     RDKit          3D

 24 26  0  0  0  0  0  0  0  0999 V2000
    5.7020    1.9810   -1.3340 C   0  0  0  0  0  0  0  0  0  0  0  0
    4.7680    0.8110   -1.3050 C   0  0  0  0  0  0  0  0  0  0  0  0
    4.3990    0.5130    0.1350 C   0  0  0  0  0  0  0  0  0  0  0  0
    4.8710    0.9130    1.2850 N   0  0  0  0  0  0  0  0  0  0  0  0
    4.0830    0.5380    2.3090 N   0  0  0  0  0  0  0  0  0  0  0  0
    3.0200   -0.1650    1.7920 C   0  0  0  0  0  0  0  0  0  0  0  0
    3.2580   -0.1680    0.4170 C   0  0  0  0  0  0  0  0  0  0  0  0
    2.5220   -0.9800   -0.5770 C   0  0  0  0  0  0  0  0  0  0  0  0
    1.2210   -0.4630   -0.7670 N   0  0  0  0  0  0  0  0  0  0  0  0
    0.6410    0.2470    0.2530 C   0  0  0  0  0  0  0  0  0  0  0  0
   -0.7580    0.8290   -0.2240 C   0  0  0  0  0  0  0  0  0  0  0  0
   -1.5350   -0.4050   -0.3420 C   0  0  0  0  0  0  0  0  0  0  0  0
   -0.9060   -1.5720   -0.7250 C   0  0  0  0  0  0  0  0  0  0  0  0
   -1.7670   -2.5910   -0.5600 N   0  0  0  0  0  0  0  0  0  0  0  0
   -2.9440   -2.0600   -0.0860 C   0  0  0  0  0  0  0  0  0  0  0  0
   -4.0770   -2.9300    0.3120 C   0  0  0  0  0  0  0  0  0  0  0  0
   -2.8120   -0.6790    0.0400 C   0  0  0  0  0  0  0  0  0  0  0  0
   -3.9170    0.2220    0.2430 C   0  0  0  0  0  0  0  0  0  0  0  0
   -3.7340    1.6680   -0.0850 C   0  0  0  0  0  0  0  0  0  0  0  0
   -5.1440    2.2690   -0.0580 C   0  0  2  0  0  0  0  0  0  0  0  0
   -5.1980    3.4080   -0.8290 F   0  0  0  0  0  0  0  0  0  0  0  0
   -5.2880    2.9780    1.2330 F   0  0  0  0  0  0  0  0  0  0  0  0
   -6.1650    1.4470   -0.0920 F   0  0  0  0  0  0  0  0  0  0  0  0
    0.4250   -1.4820   -1.3680 C   0  0  0  0  0  0  0  0  0  0  0  0
  1  2  1  0
  2  3  1  0
  3  4  2  0
  3  7  1  0
  4  5  1  0
  5  6  1  0
  6  7  2  0
  7  8  1  0
  8  9  1  0
  9 10  1  0
  9 24  1  0
 10 11  1  0
 11 12  1  0
 12 13  2  0
 12 17  1  0
 13 14  1  0
 13 24  1  0
 14 15  1  0
 15 16  1  0
 15 17  2  0
 17 18  1  0
 18 19  1  0
 19 20  1  0
 20 21  1  6
 20 22  1  0
 20 23  1  0
M  END
