
     RDKit          3D

 26 28  0  0  0  0  0  0  0  0999 V2000
   -3.3680    3.9410   -0.9940 C   0  0  0  0  0  0  0  0  0  0  0  0
   -2.0740    3.2710   -0.7150 C   0  0  0  0  0  0  0  0  0  0  0  0
   -0.9360    4.0320   -0.6660 C   0  0  0  0  0  0  0  0  0  0  0  0
    0.2760    3.4320   -0.4080 C   0  0  0  0  0  0  0  0  0  0  0  0
    0.3490    2.0860   -0.1990 C   0  0  0  0  0  0  0  0  0  0  0  0
   -0.8050    1.3240   -0.2510 C   0  0  0  0  0  0  0  0  0  0  0  0
   -2.0200    1.8820   -0.5050 C   0  0  0  0  0  0  0  0  0  0  0  0
   -0.6610   -0.1290   -0.1710 C   0  0  0  0  0  0  0  0  0  0  0  0
    0.6380   -0.6820   -0.0810 C   0  0  0  0  0  0  0  0  0  0  0  0
    0.7870   -2.0240    0.1130 C   0  0  0  0  0  0  0  0  0  0  0  0
   -0.2940   -2.8400    0.2170 C   0  0  0  0  0  0  0  0  0  0  0  0
   -0.0940   -4.3000    0.4230 C   0  0  0  0  0  0  0  0  0  0  0  0
   -1.5490   -2.3080    0.1290 C   0  0  0  0  0  0  0  0  0  0  0  0
   -2.7260   -3.2250    0.2450 C   0  0  0  0  0  0  0  0  0  0  0  0
   -1.7760   -0.9220   -0.0660 C   0  0  0  0  0  0  0  0  0  0  0  0
   -3.1510   -0.4520   -0.0090 C   0  0  0  0  0  0  0  0  0  0  0  0
   -3.6430    0.0220    1.3390 C   0  0  0  0  0  0  0  0  0  0  0  0
   -4.9580    0.4620    1.2690 O   0  0  0  0  0  0  0  0  0  0  0  0
    1.8410    0.1380   -0.2750 C   0  0  2  0  0  0  0  0  0  0  0  0
    2.0110    0.1800   -1.8260 C   0  0  0  0  0  0  0  0  0  0  0  0
    3.1330   -0.4510    0.2060 C   0  0  1  0  0  0  0  0  0  0  0  0
    3.1100   -0.8030    1.6850 C   0  0  0  0  0  0  0  0  0  0  0  0
    3.7300   -1.5050   -0.6800 C   0  0  0  0  0  0  0  0  0  0  0  0
    4.1850    0.7090    0.1580 C   0  0  0  0  0  0  0  0  0  0  0  0
    1.6980    1.5520    0.1270 C   0  0  2  0  0  0  0  0  0  0  0  0
    1.8450    1.7570    1.5170 O   0  0  0  0  0  0  0  0  0  0  0  0
  1  2  1  0
  2  3  2  0
  2  7  1  0
  3  4  1  0
  4  5  2  0
  5  6  1  0
  5 25  1  0
  6  7  2  0
  6  8  1  0
  8  9  2  0
  8 15  1  0
  9 10  1  0
  9 19  1  0
 10 11  2  0
 11 12  1  0
 11 13  1  0
 13 14  1  0
 13 15  2  0
 15 16  1  0
 16 17  1  0
 17 18  1  0
 19 20  1  6
 19 21  1  0
 19 25  1  0
 21 22  1  1
 21 23  1  0
 21 24  1  0
 25 26  1  1
M  END
