
     RDKit          3D

 29 30  0  0  0  0  0  0  0  0999 V2000
   -3.9990    5.7910    0.8570 C   0  0  0  0  0  0  0  0  0  0  0  0
   -3.4000    4.7930    1.5050 C   0  0  0  0  0  0  0  0  0  0  0  0
   -2.0580    4.3580    1.0860 C   0  0  0  0  0  0  0  0  0  0  0  0
   -2.0530    3.0190    0.6980 O   0  0  0  0  0  0  0  0  0  0  0  0
   -0.9010    2.3370    0.2350 C   0  0  0  0  0  0  0  0  0  0  0  0
    0.1280    3.0230    0.1960 O   0  0  0  0  0  0  0  0  0  0  0  0
   -1.0230    0.9310   -0.1450 C   0  0  0  0  0  0  0  0  0  0  0  0
   -2.6040    0.0350   -0.0070 S   0  0  0  0  0  0  0  0  0  0  0  0
   -1.8110   -1.5430   -0.6820 C   0  0  0  0  0  0  0  0  0  0  0  0
   -2.7000   -2.7260   -0.7940 N   0  0  0  0  0  0  0  0  0  0  0  0
   -4.0330   -2.6770   -0.3980 C   0  0  0  0  0  0  0  0  0  0  0  0
   -4.5500   -1.6370    0.0640 O   0  0  0  0  0  0  0  0  0  0  0  0
   -4.8530   -3.7960   -0.4980 O   0  0  0  0  0  0  0  0  0  0  0  0
   -6.2070   -3.7500   -0.0900 C   0  0  0  0  0  0  0  0  0  0  0  0
   -0.7470   -1.1850   -0.8490 N   0  0  0  0  0  0  0  0  0  0  0  0
   -0.1820   -0.0090   -0.6420 C   0  0  0  0  0  0  0  0  0  0  0  0
    1.2410    0.2950   -0.9170 C   0  0  0  0  0  0  0  0  0  0  0  0
    1.7730    1.3870   -0.6810 O   0  0  0  0  0  0  0  0  0  0  0  0
    2.0490   -0.7300   -1.4910 N   0  0  0  0  0  0  0  0  0  0  0  0
    3.3860   -0.5970   -1.8210 N   0  0  0  0  0  0  0  0  0  0  0  0
    4.3350   -1.9870   -1.5060 S   0  0  1  0  0  0  0  0  0  0  0  0
    3.4150   -3.1470   -1.1220 O   0  0  0  0  0  0  0  0  0  0  0  0
    5.0250   -2.4620   -2.7770 O   0  0  0  0  0  0  0  0  0  0  0  0
    5.4040   -1.7220   -0.2290 C   0  0  0  0  0  0  0  0  0  0  0  0
    5.6910   -0.6550    0.6210 C   0  0  0  0  0  0  0  0  0  0  0  0
    6.5900   -0.7370    1.5290 N   0  0  0  0  0  0  0  0  0  0  0  0
    7.3020   -1.8970    1.6890 C   0  0  0  0  0  0  0  0  0  0  0  0
    8.3330   -2.2440    2.6020 O   0  0  0  0  0  0  0  0  0  0  0  0
    6.5770   -2.9280    0.3960 S   0  0  0  0  0  0  0  0  0  0  0  0
  1  2  2  0
  2  3  1  0
  3  4  1  0
  4  5  1  0
  5  6  2  0
  5  7  1  0
  7  8  1  0
  7 16  2  0
  8  9  1  0
  9 10  1  0
  9 15  2  0
 10 11  1  0
 11 12  2  0
 11 13  1  0
 13 14  1  0
 15 16  1  0
 16 17  1  0
 17 18  2  0
 17 19  1  0
 19 20  1  0
 21 20  1  6
 21 22  2  0
 21 23  2  0
 21 24  1  0
 24 25  2  0
 24 29  1  0
 25 26  1  0
 26 27  2  0
 27 28  1  0
 27 29  1  0
M  CHG  2  26   1  28  -1
M  END
