
     RDKit          3D

 29 32  0  0  0  0  0  0  0  0999 V2000
    4.3570   -0.3610    1.7040 O   0  0  0  0  0  0  0  0  0  0  0  0
    3.5360   -0.1210    0.7620 C   0  0  0  0  0  0  0  0  0  0  0  0
    2.1150   -0.2650    0.9750 C   0  0  0  0  0  0  0  0  0  0  0  0
    1.2090   -0.0330    0.0450 C   0  0  0  0  0  0  0  0  0  0  0  0
   -0.2310   -0.2020    0.3380 C   0  0  2  0  0  0  0  0  0  0  0  0
   -0.8790   -1.2260   -0.5700 C   0  0  0  0  0  0  0  0  0  0  0  0
   -2.2960   -1.4010   -0.0790 C   0  0  0  0  0  0  0  0  0  0  0  0
   -3.0360   -0.1490   -0.0950 N   0  0  1  0  0  0  0  0  0  0  0  0
   -4.4050   -0.4030    0.1490 C   0  0  2  0  0  0  0  0  0  0  0  0
   -4.9890   -1.5300   -0.6650 C   0  0  0  0  0  0  0  0  0  0  0  0
   -6.4520   -1.3210   -0.4850 C   0  0  0  0  0  0  0  0  0  0  0  0
   -6.6460   -0.1000    0.3910 C   0  0  0  0  0  0  0  0  0  0  0  0
   -5.3760    0.6810    0.0810 C   0  0  2  0  0  0  0  0  0  0  0  0
   -5.6110    1.3890   -1.1900 C   0  0  2  0  0  0  0  0  0  0  0  0
   -6.5870    2.3690   -0.9500 F   0  0  0  0  0  0  0  0  0  0  0  0
   -6.0830    0.6540   -2.2270 F   0  0  0  0  0  0  0  0  0  0  0  0
   -4.5090    2.1550   -1.6020 F   0  0  0  0  0  0  0  0  0  0  0  0
   -2.4010    0.8220    0.7190 C   0  0  0  0  0  0  0  0  0  0  0  0
   -1.0050    1.0850    0.1470 C   0  0  0  0  0  0  0  0  0  0  0  0
    4.1300    0.2850   -0.4640 N   0  0  0  0  0  0  0  0  0  0  0  0
    5.5500    0.4040   -0.5930 C   0  0  0  0  0  0  0  0  0  0  0  0
    6.0980    0.7960   -1.7860 C   0  0  0  0  0  0  0  0  0  0  0  0
    7.4480    0.9150   -1.9250 C   0  0  0  0  0  0  0  0  0  0  0  0
    8.2500    0.6300   -0.8350 C   0  0  0  0  0  0  0  0  0  0  0  0
    9.5770    0.6440   -0.6330 N   0  0  0  0  0  0  0  0  0  0  0  0
    9.8010    0.2720    0.6380 C   0  0  0  0  0  0  0  0  0  0  0  0
    8.6250    0.0210    1.2480 N   0  0  0  0  0  0  0  0  0  0  0  0
    7.6560    0.2430    0.3340 C   0  0  0  0  0  0  0  0  0  0  0  0
    6.3310    0.1290    0.4600 N   0  0  0  0  0  0  0  0  0  0  0  0
  1  2  2  0
  2  3  1  0
  2 20  1  0
  3  4  2  3
  5  4  1  6
  5  6  1  0
  5 19  1  0
  6  7  1  0
  8  7  1  1
  8  9  1  0
  8 18  1  0
  9 10  1  6
  9 13  1  0
 10 11  1  0
 11 12  1  0
 13 12  1  6
 13 14  1  0
 14 15  1  1
 14 16  1  0
 14 17  1  0
 18 19  1  0
 20 21  1  0
 21 22  2  0
 21 29  1  0
 22 23  1  0
 23 24  2  0
 24 25  1  0
 24 28  1  0
 25 26  2  0
 26 27  1  0
 27 28  1  0
 28 29  2  0
M  CHG  1   8   1
M  END
