
     RDKit          3D

 29 32  0  0  0  0  0  0  0  0999 V2000
    6.7760    1.1720   -1.8030 N   0  0  0  0  0  0  0  0  0  0  0  0
    6.2080   -0.0670   -2.2620 C   0  0  0  0  0  0  0  0  0  0  0  0
    4.7180   -0.0910   -2.0580 C   0  0  0  0  0  0  0  0  0  0  0  0
    3.8840    0.3750   -3.0560 C   0  0  0  0  0  0  0  0  0  0  0  0
    2.5200    0.3580   -2.8820 C   0  0  0  0  0  0  0  0  0  0  0  0
    1.9750   -0.1360   -1.6830 C   0  0  0  0  0  0  0  0  0  0  0  0
    2.7660   -0.6060   -0.6700 C   0  0  0  0  0  0  0  0  0  0  0  0
    2.2590   -1.0920    0.5620 N   0  0  0  0  0  0  0  0  0  0  0  0
    0.9710   -0.8010    1.0480 C   0  0  0  0  0  0  0  0  0  0  0  0
    0.1230    0.0130    0.3970 N   0  0  0  0  0  0  0  0  0  0  0  0
   -1.0890    0.3180    0.8540 C   0  0  0  0  0  0  0  0  0  0  0  0
   -1.9400    1.2100    0.1050 N   0  0  0  0  0  0  0  0  0  0  0  0
   -3.2670    1.5770    0.5340 C   0  0  1  0  0  0  0  0  0  0  0  0
   -3.7490    2.6460   -0.4360 C   0  0  0  0  0  0  0  0  0  0  0  0
   -4.2960    2.0780   -1.6990 C   0  0  0  0  0  0  0  0  0  0  0  0
   -3.8340    0.7110   -2.0550 C   0  0  0  0  0  0  0  0  0  0  0  0
   -3.8660   -0.2710   -0.9120 C   0  0  0  0  0  0  0  0  0  0  0  0
   -4.2760    0.4330    0.3500 C   0  0  1  0  0  0  0  0  0  0  0  0
   -4.3090   -0.4610    1.4980 C   0  0  0  0  0  0  0  0  0  0  0  0
   -4.1160   -1.7110    1.3140 O   0  0  0  0  0  0  0  0  0  0  0  0
   -4.5380   -0.0650    2.8050 O   0  0  0  0  0  0  0  0  0  0  0  0
   -1.4970   -0.2060    2.0210 N   0  0  0  0  0  0  0  0  0  0  0  0
   -0.7070   -1.0300    2.7330 C   0  0  0  0  0  0  0  0  0  0  0  0
   -1.1530   -1.5580    3.9320 C   0  0  0  0  0  0  0  0  0  0  0  0
   -0.3290   -2.3910    4.6310 C   0  0  0  0  0  0  0  0  0  0  0  0
    0.9280   -2.7240    4.1840 C   0  0  0  0  0  0  0  0  0  0  0  0
    1.3940   -2.1950    2.9670 C   0  0  0  0  0  0  0  0  0  0  0  0
    0.5760   -1.3640    2.2680 C   0  0  0  0  0  0  0  0  0  0  0  0
    4.1470   -0.5620   -0.9110 C   0  0  0  0  0  0  0  0  0  0  0  0
  1  2  1  0
  2  3  1  0
  3  4  2  0
  3 29  1  0
  4  5  1  0
  5  6  2  0
  6  7  1  0
  7  8  1  0
  7 29  2  0
  8  9  1  0
  9 10  2  0
  9 28  1  0
 10 11  1  0
 11 12  1  0
 11 22  2  0
 13 12  1  6
 13 14  1  0
 13 18  1  0
 14 15  1  0
 15 16  1  0
 16 17  1  0
 17 18  1  0
 18 19  1  1
 19 20  2  0
 19 21  1  0
 22 23  1  0
 23 24  2  0
 23 28  1  0
 24 25  1  0
 25 26  2  0
 26 27  1  0
 27 28  2  0
M  CHG  1   1   1
M  END
