
     RDKit          3D

 30 30  0  0  0  0  0  0  0  0999 V2000
    0.5090   -0.9280    3.8430 C   0  0  0  0  0  0  0  0  0  0  0  0
    0.5030   -0.9810    2.4470 O   0  0  0  0  0  0  0  0  0  0  0  0
   -0.5950   -0.6850    1.6590 C   0  0  0  0  0  0  0  0  0  0  0  0
   -1.7860   -0.3120    2.1460 N   0  0  0  0  0  0  0  0  0  0  0  0
   -2.8220   -0.0340    1.3880 N   0  0  0  0  0  0  0  0  0  0  0  0
   -2.7550   -0.1090    0.0210 C   0  0  0  0  0  0  0  0  0  0  0  0
   -3.8990    0.1990   -0.7610 N   0  0  0  0  0  0  0  0  0  0  0  0
   -5.0720    0.6020   -0.1040 N   0  0  0  0  0  0  0  0  0  0  0  0
   -6.3410    0.6990   -0.7220 C   0  0  0  0  0  0  0  0  0  0  0  0
   -6.4310    0.4080   -1.9430 O   0  0  0  0  0  0  0  0  0  0  0  0
   -7.4710    1.1090    0.0020 O   0  0  0  0  0  0  0  0  0  0  0  0
   -8.7260    1.1920   -0.6360 C   0  0  0  0  0  0  0  0  0  0  0  0
   -9.2120   -0.1090   -1.1910 C   0  0  0  0  0  0  0  0  0  0  0  0
   -9.3530   -1.0860   -0.2000 O   0  0  0  0  0  0  0  0  0  0  0  0
   -1.5700   -0.4810   -0.4850 N   0  0  0  0  0  0  0  0  0  0  0  0
   -0.5020   -0.7680    0.2600 C   0  0  0  0  0  0  0  0  0  0  0  0
    1.0940   -1.2550   -0.3980 S   0  0  0  0  0  0  0  0  0  0  0  0
    2.1190    0.2040   -0.6980 C   0  0  1  0  0  0  0  0  0  0  0  0
    2.3570    0.9750    0.5930 C   0  0  0  0  0  0  0  0  0  0  0  0
    3.4950   -0.3480   -1.0350 C   0  0  0  0  0  0  0  0  0  0  0  0
    4.1420    0.0290   -2.0370 O   0  0  0  0  0  0  0  0  0  0  0  0
    4.0280   -1.2800   -0.1940 O   0  0  0  0  0  0  0  0  0  0  0  0
    5.2520   -1.8970   -0.2720 C   0  0  0  0  0  0  0  0  0  0  0  0
    6.3120   -0.8410   -0.1440 C   0  0  0  0  0  0  0  0  0  0  0  0
    5.9960    0.3640   -0.2130 O   0  0  0  0  0  0  0  0  0  0  0  0
    7.6520   -1.1510    0.0610 O   0  0  0  0  0  0  0  0  0  0  0  0
    8.5810   -0.1130    0.1810 C   0  0  0  0  0  0  0  0  0  0  0  0
   10.2360   -0.4420    0.7000 S   0  0  0  0  0  0  0  0  0  0  0  0
    8.2000    1.0750   -0.1050 N   0  0  0  0  0  0  0  0  0  0  0  0
    9.3490    2.4080    0.0500 S   0  0  0  0  0  0  0  0  0  0  0  0
  1  2  1  0
  2  3  1  0
  3  4  2  0
  3 16  1  0
  4  5  1  0
  5  6  2  0
  6  7  1  0
  6 15  1  0
  7  8  1  0
  8  9  1  0
  9 10  2  0
  9 11  1  0
 11 12  1  0
 12 13  1  0
 13 14  1  0
 15 16  2  0
 16 17  1  0
 17 18  1  0
 18 19  1  1
 18 20  1  0
 20 21  2  0
 20 22  1  0
 22 23  1  0
 23 24  1  0
 24 25  2  0
 24 26  1  0
 26 27  1  0
 27 28  1  0
 27 29  2  3
 29 30  1  0
M  END
