
     RDKit          3D

 30 31  0  0  0  0  0  0  0  0999 V2000
   -6.9170   -1.5220    2.7470 O   0  0  0  0  0  0  0  0  0  0  0  0
   -7.2880   -1.6430    1.5590 N   0  0  0  0  0  0  0  0  0  0  0  0
   -6.9300   -0.6880    0.6690 O   0  0  0  0  0  0  0  0  0  0  0  0
   -7.4150   -0.5810   -0.6260 C   0  0  0  0  0  0  0  0  0  0  0  0
   -8.2640   -1.4620   -0.9890 O   0  0  0  0  0  0  0  0  0  0  0  0
   -6.9830    0.4990   -1.5700 C   0  0  0  0  0  0  0  0  0  0  0  0
   -6.0420    1.3000   -0.8770 O   0  0  0  0  0  0  0  0  0  0  0  0
   -4.8470    0.7860   -0.3790 C   0  0  0  0  0  0  0  0  0  0  0  0
   -4.6200   -0.4310   -0.5650 O   0  0  0  0  0  0  0  0  0  0  0  0
   -3.9310    1.5770    0.3010 O   0  0  0  0  0  0  0  0  0  0  0  0
   -2.7610    1.0170    0.7730 C   0  0  0  0  0  0  0  0  0  0  0  0
   -2.5160    0.4100    1.9470 C   0  0  0  0  0  0  0  0  0  0  0  0
   -1.2970   -0.0730    2.2170 C   0  0  0  0  0  0  0  0  0  0  0  0
   -0.3130    0.0660    1.2680 C   0  0  0  0  0  0  0  0  0  0  0  0
    1.1030   -0.3450    1.2420 C   0  0  0  0  0  0  0  0  0  0  0  0
    1.6890    0.1080    0.0050 N   0  0  0  0  0  0  0  0  0  0  0  0
    1.7090    1.4870   -0.2850 C   0  0  0  0  0  0  0  0  0  0  0  0
    1.2200    2.2980    0.5350 O   0  0  0  0  0  0  0  0  0  0  0  0
    2.4250    2.0610   -1.8010 S   0  0  0  0  0  0  0  0  0  0  0  0
    3.0420    0.6450   -2.7440 C   0  0  0  0  0  0  0  0  0  0  0  0
    4.1820    0.0160   -2.0230 C   0  0  0  0  0  0  0  0  0  0  0  0
    4.7220   -0.9820   -2.5460 O   0  0  0  0  0  0  0  0  0  0  0  0
    4.6680    0.4920   -0.7950 N   0  0  0  0  0  0  0  0  0  0  0  0
    5.7700   -0.1130   -0.0970 C   0  0  0  0  0  0  0  0  0  0  0  0
    6.4170    0.0030    0.8980 N   0  0  0  0  0  0  0  0  0  0  0  0
    7.3980   -0.7060    1.3070 N   0  0  0  0  0  0  0  0  0  0  0  0
    7.7660   -1.7200    0.5310 C   0  0  0  0  0  0  0  0  0  0  0  0
    8.6920   -2.6300    0.6200 O   0  0  0  0  0  0  0  0  0  0  0  0
    6.5810   -1.5880   -0.8610 S   0  0  0  0  0  0  0  0  0  0  0  0
   -1.2050    0.9290   -0.0480 S   0  0  0  0  0  0  0  0  0  0  0  0
  1  2  2  0
  2  3  1  0
  3  4  1  0
  4  5  2  0
  4  6  1  0
  6  7  1  0
  7  8  1  0
  8  9  2  0
  8 10  1  0
 10 11  1  0
 11 12  2  0
 11 30  1  0
 12 13  1  0
 13 14  2  0
 14 15  1  0
 14 30  1  0
 15 16  1  0
 16 17  1  0
 17 18  2  0
 17 19  1  0
 19 20  1  0
 20 21  1  0
 21 22  2  0
 21 23  1  0
 23 24  1  0
 24 25  2  0
 24 29  1  0
 25 26  1  0
 26 27  1  0
 27 28  2  0
 27 29  1  0
M  END
