
     RDKit          3D

 26 27  0  0  0  0  0  0  0  0999 V2000
   -5.2790    0.5140   -1.0970 C   0  0  0  0  0  0  0  0  0  0  0  0
   -4.6000   -0.7740   -0.7850 C   0  0  0  0  0  0  0  0  0  0  0  0
   -3.1630   -0.8270   -0.6510 C   0  0  0  0  0  0  0  0  0  0  0  0
   -2.3200   -0.2000    0.3360 C   0  0  1  0  0  0  0  0  0  0  0  0
   -2.2940    1.2710    0.5390 C   0  0  0  0  0  0  0  0  0  0  0  0
   -3.4660    1.9200    0.9950 N   0  0  0  0  0  0  0  0  0  0  0  0
   -3.4280    3.3540    1.1260 C   0  0  0  0  0  0  0  0  0  0  0  0
   -2.3860    3.9720    0.8410 O   0  0  0  0  0  0  0  0  0  0  0  0
   -2.3190   -0.8660    1.7030 C   0  0  0  0  0  0  0  0  0  0  0  0
   -0.9180   -0.6980    2.2440 C   0  0  0  0  0  0  0  0  0  0  0  0
   -0.0130   -0.3360    1.1190 C   0  0  1  0  0  0  0  0  0  0  0  0
    1.0970   -1.2980    0.9950 N   0  0  0  0  0  0  0  0  0  0  0  0
    2.4540   -0.8690    0.9800 C   0  0  0  0  0  0  0  0  0  0  0  0
    2.6550    0.3860    1.0800 O   0  0  0  0  0  0  0  0  0  0  0  0
    3.5390   -1.7580    0.8640 N   0  0  0  0  0  0  0  0  0  0  0  0
    4.9160   -1.3020    0.8510 C   0  0  0  0  0  0  0  0  0  0  0  0
    5.1200   -0.3840   -0.3000 C   0  0  0  0  0  0  0  0  0  0  0  0
    4.9420    0.9410   -0.1930 N   0  0  0  0  0  0  0  0  0  0  0  0
    5.1390    1.7280   -1.2580 C   0  0  0  0  0  0  0  0  0  0  0  0
    4.9740    2.9640   -1.1640 O   0  0  0  0  0  0  0  0  0  0  0  0
    5.5140    1.1710   -2.4240 N   0  0  0  0  0  0  0  0  0  0  0  0
    5.6940   -0.1630   -2.5340 C   0  0  0  0  0  0  0  0  0  0  0  0
    6.0440   -0.6880   -3.6190 O   0  0  0  0  0  0  0  0  0  0  0  0
    5.4980   -0.9450   -1.4740 N   0  0  0  0  0  0  0  0  0  0  0  0
   -0.8550   -0.5170   -0.0960 C   0  0  2  0  0  0  0  0  0  0  0  0
   -0.4550    0.3930   -1.0610 O   0  0  0  0  0  0  0  0  0  0  0  0
  1  2  1  0
  2  3  1  0
  4  3  1  6
  4  5  1  0
  4  9  1  0
  4 25  1  0
  5  6  1  0
  6  7  1  0
  7  8  2  0
  9 10  1  0
 10 11  1  0
 11 12  1  6
 11 25  1  0
 12 13  1  0
 13 14  2  0
 13 15  1  0
 15 16  1  0
 16 17  1  0
 17 18  2  0
 17 24  1  0
 18 19  1  0
 19 20  2  0
 19 21  1  0
 21 22  1  0
 22 23  2  0
 22 24  1  0
 25 26  1  6
M  END
