
     RDKit          3D

 27 28  0  0  0  0  0  0  0  0999 V2000
   -1.4970    5.4130    3.1380 N   0  0  0  0  0  0  0  0  0  0  0  0
   -1.0020    4.5050    2.1600 C   0  0  0  0  0  0  0  0  0  0  0  0
    0.0220    4.7410    1.5090 O   0  0  0  0  0  0  0  0  0  0  0  0
   -1.7610    3.2880    1.9640 N   0  0  0  0  0  0  0  0  0  0  0  0
   -1.3670    2.3120    1.0290 C   0  0  0  0  0  0  0  0  0  0  0  0
   -0.2090    2.6630    0.2580 N   0  0  0  0  0  0  0  0  0  0  0  0
   -2.0140    1.1640    0.7800 C   0  0  0  0  0  0  0  0  0  0  0  0
   -3.2410    0.9000    1.5370 C   0  0  0  0  0  0  0  0  0  0  0  0
   -3.9860   -0.2920    1.3490 N   0  0  0  0  0  0  0  0  0  0  0  0
   -3.6890    1.7300    2.3940 O   0  0  0  0  0  0  0  0  0  0  0  0
   -1.4480    0.2220   -0.1390 C   0  0  0  0  0  0  0  0  0  0  0  0
   -1.9930   -0.9120   -0.5380 C   0  0  0  0  0  0  0  0  0  0  0  0
   -1.2860   -1.7860   -1.4930 C   0  0  0  0  0  0  0  0  0  0  0  0
   -1.8320   -2.8970   -1.8770 C   0  0  0  0  0  0  0  0  0  0  0  0
   -1.2600   -3.8250   -2.7890 N   0  0  0  0  0  0  0  0  0  0  0  0
   -1.9200   -5.0950   -2.6810 C   0  0  0  0  0  0  0  0  0  0  0  0
   -3.1190   -4.7940   -1.8250 C   0  0  0  0  0  0  0  0  0  0  0  0
   -3.0510   -3.4260   -1.5090 O   0  0  0  0  0  0  0  0  0  0  0  0
   -0.1330    0.4220   -0.7050 N   0  0  0  0  0  0  0  0  0  0  0  0
    1.0560    0.2760    0.0640 C   0  0  0  0  0  0  0  0  0  0  0  0
    0.9260   -0.0470    1.2750 O   0  0  0  0  0  0  0  0  0  0  0  0
    2.3530    0.4680   -0.4450 N   0  0  0  0  0  0  0  0  0  0  0  0
    3.4850    0.2970    0.4090 C   0  0  1  0  0  0  0  0  0  0  0  0
    4.4560   -0.7500   -0.0910 C   0  0  0  0  0  0  0  0  0  0  0  0
    5.7580   -0.2420    0.5420 C   0  0  0  0  0  0  0  0  0  0  0  0
    5.6680    1.1170    0.2490 O   0  0  0  0  0  0  0  0  0  0  0  0
    4.3690    1.5160    0.5030 C   0  0  0  0  0  0  0  0  0  0  0  0
  1  2  1  0
  2  3  2  0
  2  4  1  0
  4  5  1  0
  5  6  1  0
  5  7  2  3
  7  8  1  0
  7 11  1  0
  8  9  1  0
  8 10  2  0
 11 12  2  3
 11 19  1  0
 12 13  1  0
 13 14  2  3
 14 15  1  0
 14 18  1  0
 15 16  1  0
 16 17  1  0
 17 18  1  0
 19 20  1  0
 20 21  2  0
 20 22  1  0
 23 22  1  6
 23 24  1  0
 23 27  1  0
 24 25  1  0
 25 26  1  0
 26 27  1  0
M  END
