
     RDKit          3D

 27 28  0  0  0  0  0  0  0  0999 V2000
   -2.5730   -0.4410    1.5770 C   0  0  0  0  0  0  0  0  0  0  0  0
   -1.8630    0.3150    0.5030 C   0  0  1  0  0  0  0  0  0  0  0  0
   -0.9940   -0.6290   -0.1180 O   0  0  0  0  0  0  0  0  0  0  0  0
   -2.7070    0.8790   -0.5780 C   0  0  0  0  0  0  0  0  0  0  0  0
   -3.4910   -0.1180   -1.3480 C   0  0  0  0  0  0  0  0  0  0  0  0
   -3.1510   -0.6830   -2.5690 C   0  0  0  0  0  0  0  0  0  0  0  0
   -4.1030   -1.5740   -2.9390 N   0  0  0  0  0  0  0  0  0  0  0  0
   -5.0580   -1.6100   -1.9970 C   0  0  0  0  0  0  0  0  0  0  0  0
   -4.6800   -0.6990   -0.9970 C   0  0  0  0  0  0  0  0  0  0  0  0
   -5.4620   -0.5040    0.1060 O   0  0  0  0  0  0  0  0  0  0  0  0
   -0.9420    1.3790    1.0620 C   0  0  1  0  0  0  0  0  0  0  0  0
   -0.2600    2.1060   -0.0350 C   0  0  0  0  0  0  0  0  0  0  0  0
   -1.8770    2.3690    1.8320 C   0  0  0  0  0  0  0  0  0  0  0  0
   -1.0090    3.3560    2.3530 O   0  0  0  0  0  0  0  0  0  0  0  0
   -0.0530    0.8460    2.1370 C   0  0  0  0  0  0  0  0  0  0  0  0
    0.8130   -0.2280    1.8560 N   0  0  0  0  0  0  0  0  0  0  0  0
    1.8980   -0.3310    0.9730 C   0  0  0  0  0  0  0  0  0  0  0  0
    2.2200    0.6650    0.2870 O   0  0  0  0  0  0  0  0  0  0  0  0
    2.6510   -1.5580    0.8400 N   0  0  0  0  0  0  0  0  0  0  0  0
    3.7410   -1.6180   -0.0460 N   0  0  0  0  0  0  0  0  0  0  0  0
    4.8690   -0.8030    0.2260 C   0  0  0  0  0  0  0  0  0  0  0  0
    4.9090   -0.0410    1.2250 O   0  0  0  0  0  0  0  0  0  0  0  0
    6.0320   -0.8250   -0.6530 C   0  0  0  0  0  0  0  0  0  0  0  0
    6.1970   -1.5940   -1.7850 C   0  0  0  0  0  0  0  0  0  0  0  0
    7.4030   -1.3330   -2.3190 N   0  0  0  0  0  0  0  0  0  0  0  0
    7.9650   -0.4300   -1.5390 N   0  0  0  0  0  0  0  0  0  0  0  0
    7.1710   -0.1070   -0.5360 N   0  0  0  0  0  0  0  0  0  0  0  0
  2  1  1  1
  2  3  1  0
  2  4  1  0
  2 11  1  0
  4  5  1  0
  5  6  2  0
  5  9  1  0
  6  7  1  0
  7  8  1  0
  8  9  2  0
  9 10  1  0
 11 12  1  6
 11 13  1  0
 11 15  1  0
 13 14  1  0
 15 16  1  0
 16 17  1  0
 17 18  2  0
 17 19  1  0
 19 20  1  0
 20 21  1  0
 21 22  2  0
 21 23  1  0
 23 24  2  0
 23 27  1  0
 24 25  1  0
 25 26  1  0
 26 27  2  0
M  END
