
     RDKit          3D

 27 29  0  0  0  0  0  0  0  0999 V2000
    5.7460   -3.3650    1.0480 N   0  0  0  0  0  0  0  0  0  0  0  0
    4.5110   -3.3130    0.3480 C   0  0  0  0  0  0  0  0  0  0  0  0
    4.4250   -3.9540   -0.7280 O   0  0  0  0  0  0  0  0  0  0  0  0
    3.3680   -2.5250    0.8780 C   0  0  1  0  0  0  0  0  0  0  0  0
    3.7880   -1.0920    0.9940 C   0  0  0  0  0  0  0  0  0  0  0  0
    2.7440   -0.3860    0.1330 C   0  0  0  0  0  0  0  0  0  0  0  0
    1.6040   -1.3910    0.2100 C   0  0  1  0  0  0  0  0  0  0  0  0
    0.6290   -1.1410   -0.8850 C   0  0  0  0  0  0  0  0  0  0  0  0
    0.4460   -1.9470   -1.8160 O   0  0  0  0  0  0  0  0  0  0  0  0
   -0.1030    0.0940   -0.8200 N   0  0  0  0  0  0  0  0  0  0  0  0
   -1.0540    0.5230   -1.7470 C   0  0  0  0  0  0  0  0  0  0  0  0
   -0.8520    0.1720   -3.0310 C   0  0  0  0  0  0  0  0  0  0  0  0
   -1.7720    0.5650   -4.0940 C   0  0  0  0  0  0  0  0  0  0  0  0
   -1.4620    0.1370   -5.4260 N   0  0  0  0  0  0  0  0  0  0  0  0
   -2.8150    1.2580   -3.8790 N   0  0  0  0  0  0  0  0  0  0  0  0
   -3.1420    1.6860   -2.5880 C   0  0  0  0  0  0  0  0  0  0  0  0
   -4.1650    2.3670   -2.3730 O   0  0  0  0  0  0  0  0  0  0  0  0
   -2.2210    1.3020   -1.4490 C   0  0  0  0  0  0  0  0  0  0  0  0
   -2.6570    1.5900   -0.2670 C   0  0  0  0  0  0  0  0  0  0  0  0
   -2.1280    1.2150    1.0110 C   0  0  0  0  0  0  0  0  0  0  0  0
   -2.7400    1.6580    2.1280 C   0  0  0  0  0  0  0  0  0  0  0  0
   -3.8720    2.4710    2.1970 N   0  0  0  0  0  0  0  0  0  0  0  0
   -4.1890    2.7040    3.5700 N   0  0  0  0  0  0  0  0  0  0  0  0
   -3.2280    2.0180    4.3590 C   0  0  0  0  0  0  0  0  0  0  0  0
   -3.1270    1.9510    5.6100 O   0  0  0  0  0  0  0  0  0  0  0  0
   -2.3360    1.3740    3.4460 N   0  0  0  0  0  0  0  0  0  0  0  0
    2.2600   -2.5870    0.0760 O   0  0  0  0  0  0  0  0  0  0  0  0
  1  2  1  0
  2  3  2  0
  4  2  1  6
  4  5  1  0
  4 27  1  0
  5  6  1  0
  6  7  1  0
  7  8  1  6
  7 27  1  0
  8  9  2  0
  8 10  1  0
 10 11  1  0
 11 12  2  0
 11 18  1  0
 12 13  1  0
 13 14  1  0
 13 15  2  0
 15 16  1  0
 16 17  2  0
 16 18  1  0
 18 19  2  3
 19 20  1  0
 20 21  2  3
 21 22  1  0
 21 26  1  0
 22 23  1  0
 23 24  1  0
 24 25  2  0
 24 26  1  0
M  END
