
     RDKit          3D

 10 10  0  0  0  0  0  0  0  0999 V2000
    2.2930    1.4900   -0.3720 O   0  0  0  0  0  0  0  0  0  0  0  0
    2.6990    0.2990   -0.3270 C   0  0  0  0  0  0  0  0  0  0  0  0
    1.7220   -0.6830   -0.3440 O   0  0  0  0  0  0  0  0  0  0  0  0
    0.0460   -0.4770   -0.4180 P   0  0  0  0  0  0  0  0  0  0  0  0
   -1.0090    0.8070   -0.8800 O   0  0  0  0  0  0  0  0  0  0  0  0
   -2.1130    0.6340   -0.1280 C   0  0  0  0  0  0  0  0  0  0  0  0
   -3.0790    1.4670   -0.2710 O   0  0  0  0  0  0  0  0  0  0  0  0
   -2.1230   -0.3220    0.6580 O   0  0  0  0  0  0  0  0  0  0  0  0
   -1.2170   -1.1550    0.8350 C   0  0  0  0  0  0  0  0  0  0  0  0
   -0.9740   -2.1640    1.5240 O   0  0  0  0  0  0  0  0  0  0  0  0
  1  2  2  0
  2  3  1  0
  3  4  1  0
  4  5  1  0
  4  9  1  0
  5  6  1  0
  6  7  2  0
  6  8  1  0
  8  9  1  0
  9 10  2  0
M  END
