
     RDKit          3D

 10  9  0  0  0  0  0  0  0  0999 V2000
   -2.8350   -0.1630   -1.2450 O   0  0  0  0  0  0  0  0  0  0  0  0
   -2.6050   -0.2630   -0.0120 C   0  0  0  0  0  0  0  0  0  0  0  0
   -3.5750   -0.8980    0.7610 O   0  0  0  0  0  0  0  0  0  0  0  0
   -1.4340    0.2420    0.5280 O   0  0  0  0  0  0  0  0  0  0  0  0
   -0.2940    1.0180   -0.5530 P   0  0  0  0  0  0  0  0  0  0  0  0
    0.0410    2.6450   -0.1150 O   0  0  0  0  0  0  0  0  0  0  0  0
    1.1860    0.0250   -0.8570 C   0  0  0  0  0  0  0  0  0  0  0  0
    1.5490   -0.1360   -2.0100 O   0  0  0  0  0  0  0  0  0  0  0  0
    1.9930   -0.6110    0.2140 C   0  0  0  0  0  0  0  0  0  0  0  0
    3.0750   -1.3130   -0.3120 O   0  0  0  0  0  0  0  0  0  0  0  0
  1  2  2  0
  2  3  1  0
  2  4  1  0
  4  5  1  0
  5  6  1  0
  5  7  1  0
  7  8  2  0
  7  9  1  0
  9 10  1  0
M  END
