
     RDKit          3D

 10 10  0  0  0  0  0  0  0  0999 V2000
   -1.4780    1.7130   -0.5920 O   0  0  0  0  0  0  0  0  0  0  0  0
   -1.5830    0.3420    0.4570 P   0  0  0  0  0  0  0  0  0  0  0  0
   -3.2350   -0.1380    0.7040 O   0  0  0  0  0  0  0  0  0  0  0  0
   -0.6420   -1.1110   -0.1950 C   0  0  0  0  0  0  0  0  0  0  0  0
    0.7810   -1.1280    0.3330 C   0  0  0  0  0  0  0  0  0  0  0  0
    1.5360    0.1200   -0.0670 C   0  0  1  0  0  0  0  0  0  0  0  0
    0.9130    1.2590    0.4330 O   0  0  0  0  0  0  0  0  0  0  0  0
    1.8290    2.0150    0.9590 O   0  0  0  0  0  0  0  0  0  0  0  0
    2.9680    1.4140    0.9020 O   0  0  0  0  0  0  0  0  0  0  0  0
    2.7480    0.1410    0.6190 O   0  0  0  0  0  0  0  0  0  0  0  0
  1  2  1  0
  2  3  1  0
  2  4  1  0
  4  5  1  0
  6  5  1  1
  6  7  1  0
  6 10  1  0
  7  8  1  0
  8  9  1  0
  9 10  1  0
M  END
