
     RDKit          3D

 10  9  0  0  0  0  0  0  0  0999 V2000
    3.8370   -0.3690   -1.1540 O   0  0  0  0  0  0  0  0  0  0  0  0
    3.5790    0.7280   -0.6180 C   0  0  0  0  0  0  0  0  0  0  0  0
    2.2900    0.9060   -0.1250 O   0  0  0  0  0  0  0  0  0  0  0  0
    1.3090   -0.1140   -0.2240 C   0  0  0  0  0  0  0  0  0  0  0  0
    0.1450    0.3440    0.3440 O   0  0  0  0  0  0  0  0  0  0  0  0
   -0.8300   -0.6470    0.2540 C   0  0  1  0  0  0  0  0  0  0  0  0
   -1.3460   -0.9990    1.5000 O   0  0  0  0  0  0  0  0  0  0  0  0
   -2.1750    0.0140   -0.8540 P   0  0  0  0  0  0  0  0  0  0  0  0
   -3.7020   -0.6120   -0.3140 O   0  0  0  0  0  0  0  0  0  0  0  0
   -2.1830    1.7550   -0.8340 O   0  0  0  0  0  0  0  0  0  0  0  0
  1  2  2  0
  2  3  1  0
  3  4  1  0
  4  5  1  0
  5  6  1  0
  6  7  1  1
  6  8  1  0
  8  9  1  0
  8 10  1  0
M  END
