
     RDKit          3D

 10  9  0  0  0  0  0  0  0  0999 V2000
    1.7830    0.6960    0.2810 O   0  0  0  0  0  0  0  0  0  0  0  0
    1.6220    0.1080   -0.8030 C   0  0  0  0  0  0  0  0  0  0  0  0
    2.1920    0.6620   -1.9440 O   0  0  0  0  0  0  0  0  0  0  0  0
    0.8860   -1.0640   -0.8260 O   0  0  0  0  0  0  0  0  0  0  0  0
    0.2820   -1.6730    0.2740 C   0  0  0  0  0  0  0  0  0  0  0  0
   -0.7500   -0.8240    0.8900 C   0  0  0  0  0  0  0  0  0  0  0  0
   -1.3330   -1.1920    1.8820 O   0  0  0  0  0  0  0  0  0  0  0  0
   -1.1390    0.7840    0.1410 P   0  0  0  0  0  0  0  0  0  0  0  0
   -0.8380    2.1130    1.1970 O   0  0  0  0  0  0  0  0  0  0  0  0
   -2.6760    0.8410   -0.6060 O   0  0  0  0  0  0  0  0  0  0  0  0
  1  2  2  0
  2  3  1  0
  2  4  1  0
  4  5  1  0
  5  6  1  0
  6  7  2  0
  6  8  1  0
  8  9  1  0
  8 10  1  0
M  END
