
     RDKit          3D

 10  9  0  0  0  0  0  0  0  0999 V2000
   -2.9640   -0.0460    1.3910 O   0  0  0  0  0  0  0  0  0  0  0  0
   -2.1190   -0.0520    0.4580 C   0  0  0  0  0  0  0  0  0  0  0  0
   -0.8230   -0.7290    0.7380 C   0  0  0  0  0  0  0  0  0  0  0  0
    0.3060   -0.6520   -0.7230 P   0  0  0  0  0  0  0  0  0  0  0  0
    1.2450   -2.1040   -0.7520 O   0  0  0  0  0  0  0  0  0  0  0  0
    1.2450    0.7690   -0.7360 O   0  0  0  0  0  0  0  0  0  0  0  0
    2.5810    0.5710   -0.4060 C   0  0  0  0  0  0  0  0  0  0  0  0
    3.2010    1.8250   -0.4650 O   0  0  0  0  0  0  0  0  0  0  0  0
   -2.4070    0.5510   -0.7610 O   0  0  0  0  0  0  0  0  0  0  0  0
   -3.5990    1.1310   -0.9110 O   0  0  0  0  0  0  0  0  0  0  0  0
  1  2  2  0
  2  3  1  0
  2  9  1  0
  3  4  1  0
  4  5  1  0
  4  6  1  0
  6  7  1  0
  7  8  1  0
  9 10  1  0
M  END
