
     RDKit          3D

 24 26  0  0  0  0  0  0  0  0999 V2000
   -5.2410    1.6640    1.3850 C   0  0  0  0  0  0  0  0  0  0  0  0
   -4.2560    0.8060    0.6590 C   0  0  0  0  0  0  0  0  0  0  0  0
   -3.2250    0.2000    1.3550 C   0  0  0  0  0  0  0  0  0  0  0  0
   -2.3240   -0.5820    0.6990 C   0  0  0  0  0  0  0  0  0  0  0  0
   -1.1770   -1.2840    1.3090 C   0  0  0  0  0  0  0  0  0  0  0  0
    0.0870   -0.5020    1.2430 C   0  0  0  0  0  0  0  0  0  0  0  0
    1.0530   -0.8330    0.3030 C   0  0  0  0  0  0  0  0  0  0  0  0
    2.2130   -0.0800    0.2710 C   0  0  0  0  0  0  0  0  0  0  0  0
    3.1930   -0.4050   -0.6720 C   0  0  0  0  0  0  0  0  0  0  0  0
    4.3720    0.2630   -0.7960 C   0  0  0  0  0  0  0  0  0  0  0  0
    5.4000   -0.0160   -1.7120 N   0  0  0  0  0  0  0  0  0  0  0  0
    5.4040   -1.1390   -2.5700 C   0  0  0  0  0  0  0  0  0  0  0  0
    4.4940   -1.9880   -2.5890 O   0  0  0  0  0  0  0  0  0  0  0  0
    4.5600    1.3260    0.0970 C   0  0  0  0  0  0  0  0  0  0  0  0
    3.6120    1.6670    1.0350 C   0  0  0  0  0  0  0  0  0  0  0  0
    2.4330    0.9680    1.1290 C   0  0  0  0  0  0  0  0  0  0  0  0
    1.4890    1.2730    2.0310 N   0  0  0  0  0  0  0  0  0  0  0  0
    0.3560    0.5540    2.0780 C   0  0  0  0  0  0  0  0  0  0  0  0
   -0.5160    0.8770    2.9520 O   0  0  0  0  0  0  0  0  0  0  0  0
   -2.4820   -0.7420   -0.6780 C   0  0  0  0  0  0  0  0  0  0  0  0
   -3.5100   -0.1300   -1.3320 C   0  0  0  0  0  0  0  0  0  0  0  0
   -3.6860   -0.3010   -2.8180 C   0  0  0  0  0  0  0  0  0  0  0  0
   -4.4830   -1.3850   -3.0560 F   0  0  0  0  0  0  0  0  0  0  0  0
   -4.3850    0.6370   -0.6540 N   0  0  0  0  0  0  0  0  0  0  0  0
  1  2  1  0
  2  3  2  0
  2 24  1  0
  3  4  1  0
  4  5  1  0
  4 20  2  0
  5  6  1  0
  6  7  2  0
  6 18  1  0
  7  8  1  0
  8  9  2  0
  8 16  1  0
  9 10  1  0
 10 11  1  0
 10 14  2  0
 11 12  1  0
 12 13  2  0
 14 15  1  0
 15 16  2  0
 16 17  1  0
 17 18  1  0
 18 19  2  0
 20 21  1  0
 21 22  1  0
 21 24  2  0
 22 23  1  0
M  END
