
     RDKit          3D

 25 27  0  0  0  0  0  0  0  0999 V2000
   -1.4080    2.6910    1.8700 C   0  0  0  0  0  0  0  0  0  0  0  0
   -1.0000    1.4970    1.0900 C   0  0  0  0  0  0  0  0  0  0  0  0
   -1.4000    1.3160   -0.1300 C   0  0  0  0  0  0  0  0  0  0  0  0
   -2.2790    2.3170   -0.7480 C   0  0  0  0  0  0  0  0  0  0  0  0
   -3.2150    1.9710   -1.6520 C   0  0  0  0  0  0  0  0  0  0  0  0
   -4.0300    2.8500   -2.2330 F   0  0  0  0  0  0  0  0  0  0  0  0
   -3.3130    0.5580   -2.0040 C   0  0  0  0  0  0  0  0  0  0  0  0
   -4.1470    0.0840   -2.8340 O   0  0  0  0  0  0  0  0  0  0  0  0
   -2.3910   -0.4070   -1.3610 C   0  0  0  0  0  0  0  0  0  0  0  0
   -2.7390   -1.6470   -1.1060 C   0  0  0  0  0  0  0  0  0  0  0  0
   -4.1170   -2.0540   -1.4920 C   0  0  0  0  0  0  0  0  0  0  0  0
   -1.8300   -2.5420   -0.4910 N   0  0  0  0  0  0  0  0  0  0  0  0
   -0.5200   -2.0210   -0.1690 C   0  0  0  0  0  0  0  0  0  0  0  0
    0.4050   -2.9930    0.4690 C   0  0  0  0  0  0  0  0  0  0  0  0
   -0.1160   -0.8040   -0.3980 C   0  0  0  0  0  0  0  0  0  0  0  0
    1.1690   -0.2010   -0.1140 C   0  0  0  0  0  0  0  0  0  0  0  0
    1.2780    1.0400   -0.4740 O   0  0  0  0  0  0  0  0  0  0  0  0
    2.3240   -0.7030    0.4770 N   0  0  0  0  0  0  0  0  0  0  0  0
    3.5110    0.0610    0.6830 C   0  0  0  0  0  0  0  0  0  0  0  0
    4.7080   -0.6480    0.8450 C   0  0  0  0  0  0  0  0  0  0  0  0
    5.9160   -0.0340    1.0760 C   0  0  0  0  0  0  0  0  0  0  0  0
    5.9490    1.2900    1.1490 N   0  0  0  0  0  0  0  0  0  0  0  0
    4.8330    2.0030    1.0010 C   0  0  0  0  0  0  0  0  0  0  0  0
    3.5940    1.4150    0.7660 C   0  0  0  0  0  0  0  0  0  0  0  0
   -1.0840    0.1530   -1.0180 C   0  0  2  0  0  0  0  0  0  0  0  0
  1  2  1  0
  2  3  2  3
  3  4  1  0
 25  3  1  1
  4  5  2  0
  5  6  1  0
  5  7  1  0
  7  8  2  0
  7  9  1  0
  9 10  2  0
  9 25  1  0
 10 11  1  0
 10 12  1  0
 12 13  1  0
 13 14  1  0
 13 15  2  0
 15 16  1  0
 15 25  1  0
 16 17  2  0
 16 18  1  0
 18 19  1  0
 19 20  2  0
 19 24  1  0
 20 21  1  0
 21 22  2  0
 22 23  1  0
 23 24  2  0
M  END
