
     RDKit          3D

 25 27  0  0  0  0  0  0  0  0999 V2000
    3.6430    0.4110   -1.7430 C   0  0  0  0  0  0  0  0  0  0  0  0
    4.2500   -0.0240   -0.6610 C   0  0  0  0  0  0  0  0  0  0  0  0
    5.6520    0.2180   -0.5140 N   0  0  0  0  0  0  0  0  0  0  0  0
    6.3000   -0.2730    0.6390 C   0  0  0  0  0  0  0  0  0  0  0  0
    5.6590   -0.9410    1.5750 C   0  0  0  0  0  0  0  0  0  0  0  0
    4.2370   -1.1840    1.4210 C   0  0  0  0  0  0  0  0  0  0  0  0
    3.5460   -0.7550    0.3640 C   0  0  0  0  0  0  0  0  0  0  0  0
    2.1670   -1.0050    0.2280 N   0  0  0  0  0  0  0  0  0  0  0  0
    1.2710    0.1180    0.2560 C   0  0  0  0  0  0  0  0  0  0  0  0
    1.7560    1.2650    0.4090 O   0  0  0  0  0  0  0  0  0  0  0  0
   -0.1580   -0.0520    0.1130 C   0  0  0  0  0  0  0  0  0  0  0  0
   -0.5980   -1.2650   -0.0420 N   0  0  0  0  0  0  0  0  0  0  0  0
   -2.0020   -1.5410   -0.1930 C   0  0  0  0  0  0  0  0  0  0  0  0
   -2.5830   -1.7490   -1.4080 C   0  0  0  0  0  0  0  0  0  0  0  0
   -3.9360   -2.0100   -1.4880 C   0  0  0  0  0  0  0  0  0  0  0  0
   -4.7370   -2.0680   -0.3660 C   0  0  0  0  0  0  0  0  0  0  0  0
   -6.0560   -2.3260   -0.4880 F   0  0  0  0  0  0  0  0  0  0  0  0
   -4.1410   -1.8540    0.8810 C   0  0  0  0  0  0  0  0  0  0  0  0
   -2.7860   -1.5950    0.9370 C   0  0  0  0  0  0  0  0  0  0  0  0
   -1.0880    1.0620    0.1380 C   0  0  0  0  0  0  0  0  0  0  0  0
   -0.7900    2.3940    0.2920 C   0  0  0  0  0  0  0  0  0  0  0  0
   -1.9970    3.1080    0.2530 C   0  0  0  0  0  0  0  0  0  0  0  0
   -2.9670    2.1480    0.0750 C   0  0  0  0  0  0  0  0  0  0  0  0
   -4.4300    2.4880   -0.0220 C   0  0  0  0  0  0  0  0  0  0  0  0
   -2.4120    0.9810    0.0120 O   0  0  0  0  0  0  0  0  0  0  0  0
  1  2  2  0
  2  3  1  0
  2  7  1  0
  3  4  1  0
  4  5  2  0
  5  6  1  0
  6  7  2  0
  7  8  1  0
  8  9  1  0
  9 10  2  0
  9 11  1  0
 11 12  2  3
 11 20  1  0
 12 13  1  0
 13 14  2  0
 13 19  1  0
 14 15  1  0
 15 16  2  0
 16 17  1  0
 16 18  1  0
 18 19  2  0
 20 21  2  0
 20 25  1  0
 21 22  1  0
 22 23  2  0
 23 24  1  0
 23 25  1  0
M  END
