
     RDKit          3D

 25 27  0  0  0  0  0  0  0  0999 V2000
    7.3890    0.1190   -1.5840 C   0  0  0  0  0  0  0  0  0  0  0  0
    5.9530    0.0210   -1.2230 C   0  0  0  0  0  0  0  0  0  0  0  0
    5.5800    0.6320   -0.0800 N   0  0  0  0  0  0  0  0  0  0  0  0
    4.3110    0.5940    0.3140 C   0  0  0  0  0  0  0  0  0  0  0  0
    3.3470   -0.0560   -0.4160 C   0  0  0  0  0  0  0  0  0  0  0  0
    1.9460   -0.0930    0.0210 C   0  0  0  0  0  0  0  0  0  0  0  0
    1.1320   -1.1640   -0.2630 C   0  0  0  0  0  0  0  0  0  0  0  0
   -0.2060   -1.1980    0.1520 C   0  0  0  0  0  0  0  0  0  0  0  0
   -0.7650   -0.1650    0.8590 C   0  0  0  0  0  0  0  0  0  0  0  0
   -2.1760   -0.1700    1.3160 C   0  0  2  0  0  0  0  0  0  0  0  0
   -2.6260   -1.4880    1.8060 C   0  0  0  0  0  0  0  0  0  0  0  0
   -1.9250   -2.5270    1.8670 O   0  0  0  0  0  0  0  0  0  0  0  0
   -3.9860   -1.6350    2.2660 N   0  0  0  0  0  0  0  0  0  0  0  0
   -4.4230   -2.8320    2.7210 O   0  0  0  0  0  0  0  0  0  0  0  0
   -3.1000    0.4650    0.3590 C   0  0  0  0  0  0  0  0  0  0  0  0
   -3.5260    1.7840    0.5610 C   0  0  0  0  0  0  0  0  0  0  0  0
   -4.3780    2.4150   -0.3020 C   0  0  0  0  0  0  0  0  0  0  0  0
   -4.8460    1.7630   -1.4090 C   0  0  0  0  0  0  0  0  0  0  0  0
   -4.4470    0.4660   -1.6360 C   0  0  0  0  0  0  0  0  0  0  0  0
   -3.5710   -0.1730   -0.7440 C   0  0  0  0  0  0  0  0  0  0  0  0
   -3.2120   -1.4420   -1.0020 F   0  0  0  0  0  0  0  0  0  0  0  0
    0.0670    0.9250    1.1460 C   0  0  0  0  0  0  0  0  0  0  0  0
    1.3750    0.9400    0.7310 C   0  0  0  0  0  0  0  0  0  0  0  0
    3.7480   -0.6790   -1.5890 C   0  0  0  0  0  0  0  0  0  0  0  0
    5.0470   -0.6150   -1.9510 N   0  0  0  0  0  0  0  0  0  0  0  0
  1  2  1  0
  2  3  2  0
  2 25  1  0
  3  4  1  0
  4  5  2  0
  5  6  1  0
  5 24  1  0
  6  7  2  0
  6 23  1  0
  7  8  1  0
  8  9  2  0
  9 10  1  0
  9 22  1  0
 10 11  1  6
 10 15  1  0
 11 12  2  0
 11 13  1  0
 13 14  1  0
 15 16  2  0
 15 20  1  0
 16 17  1  0
 17 18  2  0
 18 19  1  0
 19 20  2  0
 20 21  1  0
 22 23  2  0
 24 25  2  0
M  END
