
     RDKit          3D

 25 27  0  0  0  0  0  0  0  0999 V2000
    4.8770   -1.6750   -0.1040 C   0  0  0  0  0  0  0  0  0  0  0  0
    5.2950   -0.5070   -0.5130 C   0  0  0  0  0  0  0  0  0  0  0  0
    6.7760   -0.2630   -0.5540 C   0  0  0  0  0  0  0  0  0  0  0  0
    6.9850    0.8120    0.3110 F   0  0  0  0  0  0  0  0  0  0  0  0
    4.3980    0.5910   -0.8960 C   0  0  0  0  0  0  0  0  0  0  0  0
    4.7500    1.6310   -1.6640 N   0  0  0  0  0  0  0  0  0  0  0  0
    3.6850    2.4300   -1.7970 C   0  0  0  0  0  0  0  0  0  0  0  0
    2.6280    1.8540   -1.0760 C   0  0  0  0  0  0  0  0  0  0  0  0
    1.2950    2.3980   -0.9520 C   0  0  0  0  0  0  0  0  0  0  0  0
    0.2790    1.9040   -0.2650 C   0  0  0  0  0  0  0  0  0  0  0  0
    0.3850    0.6810    0.4850 C   0  0  0  0  0  0  0  0  0  0  0  0
   -0.6080   -0.3630    0.1760 N   0  0  0  0  0  0  0  0  0  0  0  0
    0.0090   -1.5620    0.7990 C   0  0  0  0  0  0  0  0  0  0  0  0
   -1.1120   -2.2350    1.5300 C   0  0  0  0  0  0  0  0  0  0  0  0
   -1.9830   -1.1420    1.9020 N   0  0  0  0  0  0  0  0  0  0  0  0
   -1.8290   -0.1360    0.8470 C   0  0  1  0  0  0  0  0  0  0  0  0
   -1.9860    1.2500    1.4510 C   0  0  0  0  0  0  0  0  0  0  0  0
   -3.0510   -0.3140   -0.0030 C   0  0  0  0  0  0  0  0  0  0  0  0
   -4.2620   -0.0780    0.6560 C   0  0  0  0  0  0  0  0  0  0  0  0
   -5.4740   -0.1960    0.0110 C   0  0  0  0  0  0  0  0  0  0  0  0
   -5.4810   -0.5610   -1.3320 C   0  0  0  0  0  0  0  0  0  0  0  0
   -6.6660   -0.6920   -2.0170 O   0  0  0  0  0  0  0  0  0  0  0  0
   -4.2890   -0.7930   -1.9750 C   0  0  0  0  0  0  0  0  0  0  0  0
   -3.0610   -0.6700   -1.3130 C   0  0  0  0  0  0  0  0  0  0  0  0
    3.1620    0.7600   -0.5810 O   0  0  0  0  0  0  0  0  0  0  0  0
  1  2  2  0
  2  3  1  0
  2  5  1  0
  3  4  1  0
  5  6  2  0
  5 25  1  0
  6  7  1  0
  7  8  2  0
  8  9  1  0
  8 25  1  0
  9 10  2  3
 10 11  1  0
 11 12  1  0
 12 13  1  0
 12 16  1  0
 13 14  1  0
 14 15  1  0
 15 16  1  0
 16 17  1  1
 16 18  1  0
 18 19  2  0
 18 24  1  0
 19 20  1  0
 20 21  2  0
 21 22  1  0
 21 23  1  0
 23 24  2  0
M  END
