
     RDKit          3D

 11 10  0  0  0  0  0  0  0  0999 V2000
    0.7950    0.6030   -1.8200 O   0  0  0  0  0  0  0  0  0  0  0  0
    1.6610    0.1150   -1.0810 C   0  0  0  0  0  0  0  0  0  0  0  0
    3.1570    0.3930   -1.2970 C   0  0  0  0  0  0  0  0  0  0  0  0
    3.9020   -0.4430   -0.5140 O   0  0  0  0  0  0  0  0  0  0  0  0
    1.2050   -0.6790   -0.0520 O   0  0  0  0  0  0  0  0  0  0  0  0
   -0.1260   -0.8700    0.1750 O   0  0  0  0  0  0  0  0  0  0  0  0
   -0.4310    0.4500    0.9180 C   0  0  0  0  0  0  0  0  0  0  0  0
   -1.8350    0.2840    1.4140 C   0  0  0  0  0  0  0  0  0  0  0  0
   -2.8110    0.1690    0.3370 O   0  0  0  0  0  0  0  0  0  0  0  0
   -3.4660   -0.9900    0.5280 O   0  0  0  0  0  0  0  0  0  0  0  0
   -4.5070   -1.2010   -0.1770 O   0  0  0  0  0  0  0  0  0  0  0  0
  1  2  2  0
  2  3  1  0
  2  5  1  0
  3  4  1  0
  5  6  1  0
  6  7  1  0
  7  8  1  0
  8  9  1  0
  9 10  1  0
 10 11  1  0
M  END
