
     RDKit          3D

 11 10  0  0  0  0  0  0  0  0999 V2000
    3.0090   -0.6380   -1.0130 O   0  0  0  0  0  0  0  0  0  0  0  0
    2.7050    0.3780   -0.3300 C   0  0  0  0  0  0  0  0  0  0  0  0
    3.6600    1.3730   -0.1570 O   0  0  0  0  0  0  0  0  0  0  0  0
    1.4400    0.4400    0.2060 O   0  0  0  0  0  0  0  0  0  0  0  0
    0.4950   -0.6170   -0.0050 C   0  0  0  0  0  0  0  0  0  0  0  0
   -0.8030   -0.2360    0.7200 C   0  0  2  0  0  0  0  0  0  0  0  0
   -1.8110   -1.3290    0.3860 C   0  0  0  0  0  0  0  0  0  0  0  0
   -1.9240   -1.3380   -1.0100 O   0  0  0  0  0  0  0  0  0  0  0  0
   -1.3150    0.9490    0.2290 O   0  0  0  0  0  0  0  0  0  0  0  0
   -1.4960    1.8570    1.1530 O   0  0  0  0  0  0  0  0  0  0  0  0
   -1.5690    3.0260    0.5800 O   0  0  0  0  0  0  0  0  0  0  0  0
  1  2  2  0
  2  3  1  0
  2  4  1  0
  4  5  1  0
  6  5  1  6
  6  7  1  0
  6  9  1  0
  7  8  1  0
  9 10  1  0
 10 11  1  0
M  END
