
     RDKit          3D

 13 14  0  0  0  0  0  0  0  0999 V2000
   -1.7520   -2.0850    0.8160 C   0  0  0  0  0  0  0  0  0  0  0  0
   -1.2070   -0.7140    0.4680 C   0  0  0  0  0  0  0  0  0  0  0  0
   -1.8150    0.3830    0.8880 C   0  0  0  0  0  0  0  0  0  0  0  0
   -0.9840    1.9270    0.3490 P   0  0  0  0  0  0  0  0  0  0  0  0
   -2.0270    3.2820    0.4380 O   0  0  0  0  0  0  0  0  0  0  0  0
   -0.6660    1.5710   -1.3460 O   0  0  0  0  0  0  0  0  0  0  0  0
    0.0500    0.4240   -1.4150 C   0  0  1  0  0  0  0  0  0  0  0  0
    1.4380    0.8450   -1.4670 O   0  0  0  0  0  0  0  0  0  0  0  0
    1.9790    0.6320   -0.1920 C   0  0  0  0  0  0  0  0  0  0  0  0
    3.2080    1.2420    0.2010 N   0  0  0  0  0  0  0  0  0  0  0  0
    1.2030   -0.1700    0.5110 C   0  0  0  0  0  0  0  0  0  0  0  0
    0.0110   -0.5610   -0.3280 C   0  0  1  0  0  0  0  0  0  0  0  0
    0.3750   -1.8980   -0.8490 N   0  0  0  0  0  0  0  0  0  0  0  0
  1  2  1  0
  2  3  2  0
  2 12  1  0
  3  4  1  0
  4  5  1  0
  4  6  1  0
  7  6  1  1
  7  8  1  0
  7 12  1  0
  8  9  1  0
  9 10  1  0
  9 11  2  0
 11 12  1  0
 12 13  1  6
M  END
