
     RDKit          3D

 11 10  0  0  0  0  0  0  0  0999 V2000
    3.4490    0.7550    0.5980 O   0  0  0  0  0  0  0  0  0  0  0  0
    2.4800   -0.0300    0.4380 C   0  0  0  0  0  0  0  0  0  0  0  0
    2.4260   -1.2000    1.1700 O   0  0  0  0  0  0  0  0  0  0  0  0
    1.4230    0.3260   -0.5350 C   0  0  2  0  0  0  0  0  0  0  0  0
    1.7050    1.5450   -1.1400 O   0  0  0  0  0  0  0  0  0  0  0  0
    1.7540    1.3540   -2.4540 O   0  0  0  0  0  0  0  0  0  0  0  0
    0.2410    0.5070    0.1970 O   0  0  0  0  0  0  0  0  0  0  0  0
   -0.7330   -0.3950   -0.2480 C   0  0  0  0  0  0  0  0  0  0  0  0
   -1.9720   -0.1380    0.5870 C   0  0  0  0  0  0  0  0  0  0  0  0
   -2.9560   -1.0070    0.1790 O   0  0  0  0  0  0  0  0  0  0  0  0
   -4.0460   -0.7870    0.9070 O   0  0  0  0  0  0  0  0  0  0  0  0
  1  2  2  0
  2  3  1  0
  2  4  1  0
  4  5  1  1
  4  7  1  0
  5  6  1  0
  7  8  1  0
  8  9  1  0
  9 10  1  0
 10 11  1  0
M  END
