
     RDKit          3D

 11 10  0  0  0  0  0  0  0  0999 V2000
   -2.7870   -0.1160   -1.0240 C   0  0  0  0  0  0  0  0  0  0  0  0
   -1.4510   -0.2480   -0.7450 O   0  0  0  0  0  0  0  0  0  0  0  0
   -1.1170    0.0530    0.5560 C   0  0  0  0  0  0  0  0  0  0  0  0
    0.3440   -0.0930    0.8530 C   0  0  1  0  0  0  0  0  0  0  0  0
    0.5690    0.2330    2.2200 O   0  0  0  0  0  0  0  0  0  0  0  0
    1.3210    1.2920    2.3050 O   0  0  0  0  0  0  0  0  0  0  0  0
    0.8950   -1.3010    0.5360 O   0  0  0  0  0  0  0  0  0  0  0  0
    2.0000   -1.3370   -0.1470 O   0  0  0  0  0  0  0  0  0  0  0  0
    2.2740   -0.7190   -1.3410 C   0  0  0  0  0  0  0  0  0  0  0  0
    1.3800   -0.0300   -1.8690 O   0  0  0  0  0  0  0  0  0  0  0  0
    3.5130   -0.8280   -1.9930 O   0  0  0  0  0  0  0  0  0  0  0  0
  1  2  1  0
  2  3  1  0
  4  3  1  1
  4  5  1  0
  4  7  1  0
  5  6  1  0
  7  8  1  0
  8  9  1  0
  9 10  2  0
  9 11  1  0
M  END
