
     RDKit          3D

 11 11  0  0  0  0  0  0  0  0999 V2000
    4.0790    0.2910    0.0310 O   0  0  0  0  0  0  0  0  0  0  0  0
    3.0080   -0.2480   -0.4980 O   0  0  0  0  0  0  0  0  0  0  0  0
    2.7400   -1.4050    0.0920 O   0  0  0  0  0  0  0  0  0  0  0  0
    1.6010   -1.2960    0.7380 O   0  0  0  0  0  0  0  0  0  0  0  0
    0.5960   -0.7870   -0.0830 C   0  0  2  0  0  0  0  0  0  0  0  0
    0.0710    0.5270    0.4440 C   0  0  0  0  0  0  0  0  0  0  0  0
   -0.6370    1.1350   -0.5770 O   0  0  0  0  0  0  0  0  0  0  0  0
   -2.0030    1.0590   -0.3180 C   0  0  0  0  0  0  0  0  0  0  0  0
   -2.3320   -0.4210   -0.1770 C   0  0  0  0  0  0  0  0  0  0  0  0
   -1.4080   -1.1670   -0.9180 O   0  0  0  0  0  0  0  0  0  0  0  0
   -0.4580   -1.6680   -0.1720 O   0  0  0  0  0  0  0  0  0  0  0  0
  1  2  1  0
  2  3  1  0
  3  4  1  0
  5  4  1  1
  5  6  1  0
  5 11  1  0
  6  7  1  0
  7  8  1  0
  8  9  1  0
  9 10  1  0
 10 11  1  0
M  END
