
     RDKit          3D

 33 33  0  0  0  0  0  0  0  0999 V2000
   -7.3150    0.5340    0.5680 C   0  0  0  0  0  0  0  0  0  0  0  0
   -6.7650    1.5000    1.5920 C   0  0  0  0  0  0  0  0  0  0  0  0
   -6.2120    2.7510    0.9420 C   0  0  0  0  0  0  0  0  0  0  0  0
   -5.1010    2.4580   -0.0110 C   0  0  0  0  0  0  0  0  0  0  0  0
   -3.9970    1.7940    0.7200 N   0  0  0  0  0  0  0  0  0  0  0  0
   -2.8440    1.4260    0.0220 C   0  0  0  0  0  0  0  0  0  0  0  0
   -2.8110    1.6900   -1.2170 O   0  0  0  0  0  0  0  0  0  0  0  0
   -1.7310    0.7710    0.6760 N   0  0  0  0  0  0  0  0  0  0  0  0
   -1.8240    0.4740    2.0670 C   0  0  0  0  0  0  0  0  0  0  0  0
   -0.6290    0.5080   -0.1490 C   0  0  0  0  0  0  0  0  0  0  0  0
   -0.7180    0.8270   -1.4110 O   0  0  0  0  0  0  0  0  0  0  0  0
    0.6760   -0.0930    0.1820 C   0  0  1  0  0  0  0  0  0  0  0  0
    0.7600   -0.3240    1.5270 O   0  0  0  0  0  0  0  0  0  0  0  0
    0.9000   -1.2880   -0.6660 C   0  0  0  0  0  0  0  0  0  0  0  0
   -0.0200   -2.4430   -0.5940 C   0  0  1  0  0  0  0  0  0  0  0  0
   -1.4470   -2.2120   -0.9180 C   0  0  0  0  0  0  0  0  0  0  0  0
    0.4800   -3.4690   -1.6050 C   0  0  0  0  0  0  0  0  0  0  0  0
    1.3880   -3.2530   -2.4090 O   0  0  0  0  0  0  0  0  0  0  0  0
   -0.2000   -4.7170   -1.5430 N   0  0  0  0  0  0  0  0  0  0  0  0
   -0.7330   -5.1610   -0.2860 C   0  0  0  0  0  0  0  0  0  0  0  0
   -0.5810   -4.4100    0.7840 C   0  0  0  0  0  0  0  0  0  0  0  0
    0.1250   -3.1280    0.7380 C   0  0  1  0  0  0  0  0  0  0  0  0
    1.6310   -3.4610    0.8420 C   0  0  0  0  0  0  0  0  0  0  0  0
    1.6790    0.9840   -0.2260 C   0  0  0  0  0  0  0  0  0  0  0  0
    1.7040    1.3660   -1.4340 O   0  0  0  0  0  0  0  0  0  0  0  0
    2.5890    1.5900    0.6460 N   0  0  0  0  0  0  0  0  0  0  0  0
    3.5130    2.6050    0.1980 C   0  0  0  0  0  0  0  0  0  0  0  0
    4.4500    2.1400   -0.8780 C   0  0  0  0  0  0  0  0  0  0  0  0
    5.3070    0.9750   -0.4270 C   0  0  0  0  0  0  0  0  0  0  0  0
    6.2010    0.6160   -1.6180 C   0  0  0  0  0  0  0  0  0  0  0  0
    7.2670    2.0290   -2.1150 P   0  0  0  0  0  0  0  0  0  0  0  0
    7.9190    2.8620   -0.7400 O   0  0  0  0  0  0  0  0  0  0  0  0
    6.3620    3.1730   -3.0750 O   0  0  0  0  0  0  0  0  0  0  0  0
  1  2  1  0
  2  3  1  0
  3  4  1  0
  4  5  1  0
  5  6  1  0
  6  7  2  0
  6  8  1  0
  8  9  1  0
  8 10  1  0
 10 11  2  0
 10 12  1  0
 12 13  1  1
 12 14  1  0
 12 24  1  0
 14 15  1  0
 15 16  1  6
 15 17  1  0
 15 22  1  0
 17 18  2  0
 17 19  1  0
 19 20  1  0
 20 21  2  0
 21 22  1  0
 22 23  1  6
 24 25  2  0
 24 26  1  0
 26 27  1  0
 27 28  1  0
 28 29  1  0
 29 30  1  0
 30 31  1  0
 31 32  1  0
 31 33  1  0
M  END
