
     RDKit          3D

 35 36  0  0  0  0  0  0  0  0999 V2000
   -0.3480   -4.1140    0.8620 C   0  0  0  0  0  0  0  0  0  0  0  0
    0.0020   -2.7820    0.4790 O   0  0  0  0  0  0  0  0  0  0  0  0
    1.1070   -2.1400    0.9970 C   0  0  0  0  0  0  0  0  0  0  0  0
    1.8090   -2.7800    1.8350 O   0  0  0  0  0  0  0  0  0  0  0  0
    1.5310   -0.7600    0.6470 C   0  0  2  0  0  0  0  0  0  0  0  0
    2.6770   -0.3820    1.2990 O   0  0  0  0  0  0  0  0  0  0  0  0
    3.7390   -0.1160    0.4520 C   0  0  0  0  0  0  0  0  0  0  0  0
    4.9320    0.2890    1.3080 C   0  0  0  0  0  0  0  0  0  0  0  0
    6.4100    0.6660    0.2420 P   0  0  0  0  0  0  0  0  0  0  0  0
    7.5080   -0.6830    0.2620 O   0  0  0  0  0  0  0  0  0  0  0  0
    5.8730    1.0220   -1.3650 O   0  0  0  0  0  0  0  0  0  0  0  0
    6.5220    2.1890   -1.8050 C   0  0  0  0  0  0  0  0  0  0  0  0
    6.1330    2.5270   -3.0890 O   0  0  0  0  0  0  0  0  0  0  0  0
    0.4350    0.1630    1.0090 C   0  0  0  0  0  0  0  0  0  0  0  0
    0.6900    1.0690    1.7920 O   0  0  0  0  0  0  0  0  0  0  0  0
   -0.9430    0.0680    0.4930 C   0  0  1  0  0  0  0  0  0  0  0  0
   -1.6980    1.1080    1.0310 O   0  0  0  0  0  0  0  0  0  0  0  0
   -2.1140    0.8320    2.3310 C   0  0  0  0  0  0  0  0  0  0  0  0
   -3.3600    1.6450    2.5930 C   0  0  0  0  0  0  0  0  0  0  0  0
   -4.3780    1.3860    1.5340 C   0  0  0  0  0  0  0  0  0  0  0  0
   -4.5450    2.5070    0.5810 C   0  0  0  0  0  0  0  0  0  0  0  0
   -3.8660    3.5460    0.8190 O   0  0  0  0  0  0  0  0  0  0  0  0
   -5.3950    2.3710   -0.4750 O   0  0  0  0  0  0  0  0  0  0  0  0
   -5.5570    1.2810   -1.2980 C   0  0  0  0  0  0  0  0  0  0  0  0
   -6.7150    1.0570   -1.7200 O   0  0  0  0  0  0  0  0  0  0  0  0
   -4.5010    0.5050   -1.6210 O   0  0  0  0  0  0  0  0  0  0  0  0
   -3.1830    0.8720   -1.9150 C   0  0  0  0  0  0  0  0  0  0  0  0
   -2.2170   -0.3000   -1.7620 C   0  0  1  0  0  0  0  0  0  0  0  0
   -2.9870   -1.4300   -1.1580 C   0  0  0  0  0  0  0  0  0  0  0  0
   -2.3480   -2.5620   -1.6980 O   0  0  0  0  0  0  0  0  0  0  0  0
   -2.0310   -2.2140   -3.0130 C   0  0  0  0  0  0  0  0  0  0  0  0
   -1.9190   -2.9920   -4.0160 O   0  0  0  0  0  0  0  0  0  0  0  0
   -1.8550   -0.8300   -3.0230 O   0  0  0  0  0  0  0  0  0  0  0  0
   -1.0270    0.1090   -0.9720 C   0  0  0  0  0  0  0  0  0  0  0  0
   -0.0580    0.5040   -1.5980 O   0  0  0  0  0  0  0  0  0  0  0  0
  1  2  1  0
  2  3  1  0
  3  4  2  0
  3  5  1  0
  5  6  1  1
  5 14  1  0
  6  7  1  0
  7  8  1  0
  8  9  1  0
  9 10  1  0
  9 11  1  0
 11 12  1  0
 12 13  1  0
 14 15  2  0
 16 14  1  6
 16 17  1  0
 16 34  1  0
 17 18  1  0
 18 19  1  0
 19 20  1  0
 20 21  1  0
 21 22  2  0
 21 23  1  0
 23 24  1  0
 24 25  2  0
 24 26  1  0
 26 27  1  0
 28 27  1  6
 28 29  1  0
 28 33  1  0
 28 34  1  0
 29 30  1  0
 30 31  1  0
 31 32  2  0
 31 33  1  0
 34 35  2  0
M  END
