
     RDKit          3D

 34 34  0  0  0  0  0  0  0  0999 V2000
   -5.9870   -2.2130    2.2180 C   0  0  0  0  0  0  0  0  0  0  0  0
   -5.2360   -2.0700    1.0410 O   0  0  0  0  0  0  0  0  0  0  0  0
   -4.1380   -1.1800    0.9710 C   0  0  0  0  0  0  0  0  0  0  0  0
   -3.9150   -0.5570    2.0270 O   0  0  0  0  0  0  0  0  0  0  0  0
   -3.3710   -1.0540   -0.2780 C   0  0  0  0  0  0  0  0  0  0  0  0
   -2.1800   -0.1710   -0.2230 C   0  0  1  0  0  0  0  0  0  0  0  0
   -2.5060    1.1450    0.1500 O   0  0  0  0  0  0  0  0  0  0  0  0
   -3.2990    1.7830   -0.7770 C   0  0  0  0  0  0  0  0  0  0  0  0
   -3.5800    3.1700   -0.2750 C   0  0  0  0  0  0  0  0  0  0  0  0
   -4.6420    4.1510   -1.4260 P   0  0  0  0  0  0  0  0  0  0  0  0
   -5.2290    3.1700   -2.7040 O   0  0  0  0  0  0  0  0  0  0  0  0
   -3.8950    5.5950   -1.9650 O   0  0  0  0  0  0  0  0  0  0  0  0
   -1.2470   -0.6590    0.8670 C   0  0  0  0  0  0  0  0  0  0  0  0
   -0.0970    0.0960    0.7660 O   0  0  0  0  0  0  0  0  0  0  0  0
    1.0280   -0.6290    0.5240 C   0  0  1  0  0  0  0  0  0  0  0  0
    2.2660    0.2240    0.5970 C   0  0  0  0  0  0  0  0  0  0  0  0
    2.1030    1.4400    0.8520 O   0  0  0  0  0  0  0  0  0  0  0  0
    3.5330   -0.2580    0.4020 O   0  0  0  0  0  0  0  0  0  0  0  0
    4.7040    0.4970    0.4600 C   0  0  0  0  0  0  0  0  0  0  0  0
    4.7430    1.6200   -0.5550 C   0  0  0  0  0  0  0  0  0  0  0  0
    6.3020    2.5930   -0.4490 P   0  0  0  0  0  0  0  0  0  0  0  0
    6.1050    3.9790    0.5940 O   0  0  0  0  0  0  0  0  0  0  0  0
    7.5890    1.6110    0.1780 O   0  0  0  0  0  0  0  0  0  0  0  0
    8.0300    0.7020   -0.7620 C   0  0  0  0  0  0  0  0  0  0  0  0
    1.1360   -1.8150    1.4440 C   0  0  0  0  0  0  0  0  0  0  0  0
    1.1900   -3.1150    0.6650 C   0  0  0  0  0  0  0  0  0  0  0  0
    1.6320   -2.9390   -0.6450 O   0  0  0  0  0  0  0  0  0  0  0  0
    1.0310   -3.3590   -1.8080 C   0  0  0  0  0  0  0  0  0  0  0  0
    1.5710   -3.9930   -2.7420 O   0  0  0  0  0  0  0  0  0  0  0  0
   -0.4210   -3.0320   -1.9930 C   0  0  0  0  0  0  0  0  0  0  0  0
   -0.4760   -1.8160   -2.6370 O   0  0  0  0  0  0  0  0  0  0  0  0
   -1.2980   -0.7360   -2.5360 C   0  0  0  0  0  0  0  0  0  0  0  0
   -1.8980   -0.3970   -3.6310 O   0  0  0  0  0  0  0  0  0  0  0  0
   -1.5010   -0.0440   -1.4290 O   0  0  0  0  0  0  0  0  0  0  0  0
  1  2  1  0
  2  3  1  0
  3  4  2  0
  3  5  1  0
  6  5  1  6
  6  7  1  0
  6 13  1  0
  6 34  1  0
  7  8  1  0
  8  9  1  0
  9 10  1  0
 10 11  1  0
 10 12  1  0
 13 14  1  0
 14 15  1  0
 15 16  1  1
 15 25  1  0
 16 17  2  0
 16 18  1  0
 18 19  1  0
 19 20  1  0
 20 21  1  0
 21 22  1  0
 21 23  1  0
 23 24  1  0
 25 26  1  0
 26 27  1  0
 27 28  1  0
 28 29  2  0
 28 30  1  0
 30 31  1  0
 31 32  1  0
 32 33  2  0
 32 34  1  0
M  END
