
     RDKit          3D

 35 34  0  0  0  0  0  0  0  0999 V2000
   -6.0610   -0.8460    4.5490 C   0  0  0  0  0  0  0  0  0  0  0  0
   -5.4260   -1.7920    3.5560 C   0  0  0  0  0  0  0  0  0  0  0  0
   -5.1080   -1.0690    2.3990 O   0  0  0  0  0  0  0  0  0  0  0  0
   -4.2450   -0.0110    2.4750 C   0  0  0  0  0  0  0  0  0  0  0  0
   -3.7250    0.3340    3.5640 O   0  0  0  0  0  0  0  0  0  0  0  0
   -3.8560    0.8130    1.2760 C   0  0  2  0  0  0  0  0  0  0  0  0
   -4.5360    0.2710    0.1780 O   0  0  0  0  0  0  0  0  0  0  0  0
   -5.4360    0.9620   -0.5980 C   0  0  0  0  0  0  0  0  0  0  0  0
   -5.6650    2.1630   -0.3040 O   0  0  0  0  0  0  0  0  0  0  0  0
   -6.1540    0.3850   -1.7590 C   0  0  0  0  0  0  0  0  0  0  0  0
   -6.9970    1.2780   -2.3680 O   0  0  0  0  0  0  0  0  0  0  0  0
   -7.5780    0.6650   -3.3770 O   0  0  0  0  0  0  0  0  0  0  0  0
   -2.3890    0.7170    1.1650 C   0  0  0  0  0  0  0  0  0  0  0  0
   -1.7280    1.1990    2.1440 O   0  0  0  0  0  0  0  0  0  0  0  0
   -1.7010    0.1650    0.1180 O   0  0  0  0  0  0  0  0  0  0  0  0
   -0.3140    0.1470    0.1560 C   0  0  0  0  0  0  0  0  0  0  0  0
    0.2910    0.6330    1.1420 O   0  0  0  0  0  0  0  0  0  0  0  0
    0.5120   -0.4320   -0.9360 C   0  0  2  0  0  0  0  0  0  0  0  0
    0.1470   -1.9190   -1.0010 C   0  0  0  0  0  0  0  0  0  0  0  0
    1.8760   -0.3070   -0.6150 O   0  0  0  0  0  0  0  0  0  0  0  0
    2.9080   -0.7480   -1.3900 C   0  0  0  0  0  0  0  0  0  0  0  0
    2.6610   -1.3160   -2.4790 O   0  0  0  0  0  0  0  0  0  0  0  0
    4.3480   -0.5900   -1.0130 C   0  0  0  0  0  0  0  0  0  0  0  0
    4.4820    0.0450    0.1960 O   0  0  0  0  0  0  0  0  0  0  0  0
    5.7920    0.2170    0.5840 C   0  0  0  0  0  0  0  0  0  0  0  0
    6.5450   -1.0960    0.7330 C   0  0  0  0  0  0  0  0  0  0  0  0
    7.9790   -0.8180    1.1660 C   0  0  0  0  0  0  0  0  0  0  0  0
    8.0110    0.0800    2.7970 P   0  0  0  0  0  0  0  0  0  0  0  0
    8.2300    1.7800    2.4430 O   0  0  0  0  0  0  0  0  0  0  0  0
    9.4270   -0.4200    3.6930 O   0  0  0  0  0  0  0  0  0  0  0  0
    0.2510    0.2330   -2.2300 C   0  0  0  0  0  0  0  0  0  0  0  0
    1.1900    0.8050   -2.8340 O   0  0  0  0  0  0  0  0  0  0  0  0
   -0.9950    0.2670   -2.8330 O   0  0  0  0  0  0  0  0  0  0  0  0
   -1.2910    0.8820   -4.0510 C   0  0  0  0  0  0  0  0  0  0  0  0
   -1.0300    2.3480   -4.1060 C   0  0  0  0  0  0  0  0  0  0  0  0
  1  2  1  0
  2  3  1  0
  3  4  1  0
  4  5  2  0
  4  6  1  0
  6  7  1  6
  6 13  1  0
  7  8  1  0
  8  9  2  0
  8 10  1  0
 10 11  1  0
 11 12  1  0
 13 14  2  0
 13 15  1  0
 15 16  1  0
 16 17  2  0
 16 18  1  0
 18 19  1  6
 18 20  1  0
 18 31  1  0
 20 21  1  0
 21 22  2  0
 21 23  1  0
 23 24  1  0
 24 25  1  0
 25 26  1  0
 26 27  1  0
 27 28  1  0
 28 29  1  0
 28 30  1  0
 31 32  2  0
 31 33  1  0
 33 34  1  0
 34 35  1  0
M  END
