
     RDKit          3D

 33 36  0  0  0  0  0  0  0  0999 V2000
   -4.9460    2.1760    1.8000 C   0  0  0  0  0  0  0  0  0  0  0  0
   -4.1700    0.9460    1.6120 N   0  0  0  0  0  0  0  0  0  0  0  0
   -3.7830    0.1560    2.6660 C   0  0  0  0  0  0  0  0  0  0  0  0
   -3.0270   -0.8200    2.1670 N   0  0  0  0  0  0  0  0  0  0  0  0
   -2.9300   -0.6700    0.8460 C   0  0  0  0  0  0  0  0  0  0  0  0
   -3.6710    0.4760    0.4680 C   0  0  0  0  0  0  0  0  0  0  0  0
   -3.8820    0.8680   -0.8990 C   0  0  0  0  0  0  0  0  0  0  0  0
   -2.9100    0.6800   -1.8110 C   0  0  0  0  0  0  0  0  0  0  0  0
   -1.6940    0.1170   -1.4660 N   0  0  0  0  0  0  0  0  0  0  0  0
   -0.9680   -0.5980   -2.2580 C   0  0  0  0  0  0  0  0  0  0  0  0
   -1.2790   -0.8950   -3.5090 N   0  0  0  0  0  0  0  0  0  0  0  0
   -0.4550   -1.6420   -4.2490 C   0  0  0  0  0  0  0  0  0  0  0  0
    0.7170   -2.1160   -3.7470 C   0  0  0  0  0  0  0  0  0  0  0  0
    1.0780   -1.8130   -2.4060 C   0  0  0  0  0  0  0  0  0  0  0  0
    2.3330   -2.3080   -1.9300 C   0  0  0  0  0  0  0  0  0  0  0  0
    3.0340   -3.0790   -2.7200 O   0  0  0  0  0  0  0  0  0  0  0  0
    2.9220   -2.0590   -0.6780 N   0  0  0  0  0  0  0  0  0  0  0  0
    4.2280   -2.6700   -0.2720 C   0  0  0  0  0  0  0  0  0  0  0  0
    4.8740   -1.5150    0.4530 C   0  0  2  0  0  0  0  0  0  0  0  0
    6.0160   -1.9080    1.1420 O   0  0  0  0  0  0  0  0  0  0  0  0
    3.7200   -1.1790    1.4060 C   0  0  1  0  0  0  0  0  0  0  0  0
    3.8430    0.1650    1.8500 N   0  0  0  0  0  0  0  0  0  0  0  0
    5.0210    0.4500    2.6070 C   0  0  0  0  0  0  0  0  0  0  0  0
    5.0970    2.2200    3.1520 P   0  0  0  0  0  0  0  0  0  0  0  0
    5.8900    2.3400    4.7010 O   0  0  0  0  0  0  0  0  0  0  0  0
    6.0480    3.0990    2.0100 O   0  0  0  0  0  0  0  0  0  0  0  0
    2.5230   -1.2400    0.4180 C   0  0  0  0  0  0  0  0  0  0  0  0
    0.2090   -1.0700   -1.7410 N   0  0  0  0  0  0  0  0  0  0  0  0
   -5.1190    1.4380   -1.4480 C   0  0  0  0  0  0  0  0  0  0  0  0
   -6.3730    1.5160   -0.9320 C   0  0  0  0  0  0  0  0  0  0  0  0
   -7.1770    2.1690   -1.8710 C   0  0  0  0  0  0  0  0  0  0  0  0
   -6.3550    2.4580   -2.9290 C   0  0  0  0  0  0  0  0  0  0  0  0
   -5.1720    2.0160   -2.6400 O   0  0  0  0  0  0  0  0  0  0  0  0
  1  2  1  0
  2  3  1  0
  2  6  1  0
  3  4  2  0
  4  5  1  0
  5  6  2  0
  6  7  1  0
  7  8  2  3
  7 29  1  0
  8  9  1  0
  9 10  2  3
 10 11  1  0
 10 28  1  0
 11 12  2  0
 12 13  1  0
 13 14  2  0
 14 15  1  0
 14 28  1  0
 15 16  2  0
 15 17  1  0
 17 18  1  0
 17 27  1  0
 18 19  1  0
 19 20  1  1
 19 21  1  0
 21 22  1  6
 21 27  1  0
 22 23  1  0
 23 24  1  0
 24 25  1  0
 24 26  1  0
 29 30  2  0
 29 33  1  0
 30 31  1  0
 31 32  2  0
 32 33  1  0
M  END
