
     RDKit          3D

 34 37  0  0  0  0  0  0  0  0999 V2000
    2.3280   -1.5870   -0.7210 O   0  0  0  0  0  0  0  0  0  0  0  0
    1.7640   -0.5140   -0.3820 C   0  0  0  0  0  0  0  0  0  0  0  0
    0.3380   -0.5610   -0.1590 N   0  0  0  0  0  0  0  0  0  0  0  0
   -0.4030   -1.7820   -0.3210 C   0  0  0  0  0  0  0  0  0  0  0  0
   -1.8670   -1.6060   -0.1810 C   0  0  0  0  0  0  0  0  0  0  0  0
   -2.6750   -2.7050    0.1430 C   0  0  0  0  0  0  0  0  0  0  0  0
   -4.0260   -2.5420    0.2650 C   0  0  0  0  0  0  0  0  0  0  0  0
   -4.6760   -1.3130    0.0820 C   0  0  0  0  0  0  0  0  0  0  0  0
   -6.0740   -1.2800    0.2270 N   0  0  0  0  0  0  0  0  0  0  0  0
   -6.8760   -0.1180    0.1800 C   0  0  0  0  0  0  0  0  0  0  0  0
   -6.4430    1.1350    0.0050 N   0  0  0  0  0  0  0  0  0  0  0  0
   -7.2330    2.2120   -0.0280 C   0  0  0  0  0  0  0  0  0  0  0  0
   -6.6930    3.5050   -0.2170 O   0  0  0  0  0  0  0  0  0  0  0  0
   -8.5590    2.0630    0.1220 N   0  0  0  0  0  0  0  0  0  0  0  0
   -9.0700    0.8430    0.3010 N   0  0  0  0  0  0  0  0  0  0  0  0
  -10.3600    0.4490    0.4720 C   0  0  0  0  0  0  0  0  0  0  0  0
  -10.3360   -0.8880    0.6090 N   0  0  0  0  0  0  0  0  0  0  0  0
   -9.0820   -1.3410    0.5300 C   0  0  0  0  0  0  0  0  0  0  0  0
   -8.2750   -0.2360    0.3340 C   0  0  0  0  0  0  0  0  0  0  0  0
   -3.8930   -0.2430   -0.2340 C   0  0  0  0  0  0  0  0  0  0  0  0
   -2.5000   -0.4030   -0.3610 C   0  0  0  0  0  0  0  0  0  0  0  0
    2.4730    0.6760   -0.2230 O   0  0  0  0  0  0  0  0  0  0  0  0
    3.8350    0.6290   -0.4590 C   0  0  0  0  0  0  0  0  0  0  0  0
    4.3470    0.8510   -1.7270 C   0  0  0  0  0  0  0  0  0  0  0  0
    5.6930    0.8100   -1.9870 C   0  0  0  0  0  0  0  0  0  0  0  0
    6.6100    0.5420   -0.9840 C   0  0  0  0  0  0  0  0  0  0  0  0
    6.1320    0.3190    0.2840 C   0  0  0  0  0  0  0  0  0  0  0  0
    7.0330    0.0480    1.3360 N   0  0  0  0  0  0  0  0  0  0  0  0
    8.4490    0.0620    1.2110 C   0  0  1  0  0  0  0  0  0  0  0  0
    8.8430   -0.8520    0.2150 O   0  0  0  0  0  0  0  0  0  0  0  0
    9.0120    1.7610    0.7440 P   0  0  0  0  0  0  0  0  0  0  0  0
    7.6460    2.7400    0.3470 O   0  0  0  0  0  0  0  0  0  0  0  0
   10.0690    1.6680   -0.5960 O   0  0  0  0  0  0  0  0  0  0  0  0
    4.7540    0.3650    0.5270 C   0  0  0  0  0  0  0  0  0  0  0  0
  1  2  2  0
  2  3  1  0
  2 22  1  0
  3  4  1  0
  4  5  1  0
  5  6  2  0
  5 21  1  0
  6  7  1  0
  7  8  2  0
  8  9  1  0
  8 20  1  0
  9 10  1  0
 10 11  2  0
 10 19  1  0
 11 12  1  0
 12 13  1  0
 12 14  2  0
 14 15  1  0
 15 16  1  0
 15 19  1  0
 16 17  2  0
 17 18  1  0
 18 19  2  0
 20 21  2  0
 22 23  1  0
 23 24  2  0
 23 34  1  0
 24 25  1  0
 25 26  2  0
 26 27  1  0
 27 28  1  0
 27 34  2  0
 28 29  1  0
 29 30  1  6
 29 31  1  0
 31 32  1  0
 31 33  1  0
M  END
