
     RDKit          3D

 34 37  0  0  0  0  0  0  0  0999 V2000
    3.6250   -0.1940    3.5140 O   0  0  0  0  0  0  0  0  0  0  0  0
    2.8270    0.1790    2.5910 C   0  0  0  0  0  0  0  0  0  0  0  0
    1.5240    0.3630    2.8820 N   0  0  0  0  0  0  0  0  0  0  0  0
    0.6590    0.7550    1.9340 C   0  0  0  0  0  0  0  0  0  0  0  0
   -0.5750    0.9270    2.2170 O   0  0  0  0  0  0  0  0  0  0  0  0
    1.1090    0.9620    0.6900 N   0  0  0  0  0  0  0  0  0  0  0  0
    0.2000    1.3820   -0.3370 C   0  0  1  0  0  0  0  0  0  0  0  0
   -0.8380    0.2960   -0.6600 C   0  0  0  0  0  0  0  0  0  0  0  0
   -1.8570    1.1430   -1.3860 C   0  0  1  0  0  0  0  0  0  0  0  0
   -3.0790    0.6040   -1.5420 O   0  0  0  0  0  0  0  0  0  0  0  0
   -3.9110    0.5790   -0.4240 C   0  0  2  0  0  0  0  0  0  0  0  0
   -3.9390   -0.8580   -0.0190 C   0  0  0  0  0  0  0  0  0  0  0  0
   -4.5790   -1.2580    1.1390 C   0  0  0  0  0  0  0  0  0  0  0  0
   -4.6380   -2.5700    1.5540 C   0  0  0  0  0  0  0  0  0  0  0  0
   -4.0340   -3.5590    0.7940 C   0  0  0  0  0  0  0  0  0  0  0  0
   -3.3890   -3.1870   -0.3650 C   0  0  0  0  0  0  0  0  0  0  0  0
   -3.3470   -1.8650   -0.7550 C   0  0  0  0  0  0  0  0  0  0  0  0
   -5.4640    1.3400   -0.5900 P   0  0  0  0  0  0  0  0  0  0  0  0
   -6.3330    0.2290   -0.0150 O   0  0  0  0  0  0  0  0  0  0  0  0
   -6.3370    1.1420   -2.0220 O   0  0  0  0  0  0  0  0  0  0  0  0
   -6.0010    2.4640    0.4920 O   0  0  0  0  0  0  0  0  0  0  0  0
   -3.2590    1.2140    0.6320 O   0  0  0  0  0  0  0  0  0  0  0  0
   -2.8460    2.4930    0.3710 C   0  0  0  0  0  0  0  0  0  0  0  0
   -1.7570    2.4420   -0.6660 C   0  0  1  0  0  0  0  0  0  0  0  0
   -0.5340    2.4970   -0.0270 O   0  0  0  0  0  0  0  0  0  0  0  0
    2.4050    0.7890    0.3610 C   0  0  0  0  0  0  0  0  0  0  0  0
    3.3020    0.3870    1.3260 C   0  0  0  0  0  0  0  0  0  0  0  0
    4.7380    0.1850    1.0070 C   0  0  0  0  0  0  0  0  0  0  0  0
    5.0210    0.5450   -0.7480 S   0  0  0  0  0  0  0  0  0  0  0  0
    6.8190    0.2660   -1.0510 C   0  0  0  0  0  0  0  0  0  0  0  0
    7.3190   -1.3780   -0.8830 P   0  0  0  0  0  0  0  0  0  0  0  0
    8.2120   -1.5100   -2.1050 O   0  0  0  0  0  0  0  0  0  0  0  0
    8.6030   -1.7690    0.1090 O   0  0  0  0  0  0  0  0  0  0  0  0
    6.3330   -2.6130   -1.4560 O   0  0  0  0  0  0  0  0  0  0  0  0
  1  2  2  0
  2  3  1  0
  2 27  1  0
  3  4  1  0
  4  5  2  0
  4  6  1  0
  7  6  1  1
  6 26  1  0
  7  8  1  0
  7 25  1  0
  9  8  1  1
  9 10  1  0
  9 24  1  0
 10 11  1  0
 11 12  1  0
 11 18  1  6
 11 22  1  0
 12 13  2  0
 12 17  1  0
 13 14  1  0
 14 15  2  0
 15 16  1  0
 16 17  2  0
 18 19  1  0
 18 20  1  0
 18 21  1  0
 22 23  1  0
 24 23  1  1
 24 25  1  0
 26 27  2  0
 27 28  1  0
 28 29  1  0
 29 30  1  0
 30 31  1  0
 31 32  1  0
 31 33  1  0
 31 34  1  0
M  END
