
     RDKit          3D

 34 37  0  0  0  0  0  0  0  0999 V2000
    6.8170    1.0520    2.7100 N   0  0  0  0  0  0  0  0  0  0  0  0
    6.5090    1.6800    1.4190 C   0  0  0  0  0  0  0  0  0  0  0  0
    5.6820    0.6990    0.6730 C   0  0  0  0  0  0  0  0  0  0  0  0
    6.1870   -0.2400   -0.1400 N   0  0  0  0  0  0  0  0  0  0  0  0
    5.4030   -1.1190   -0.8050 C   0  0  0  0  0  0  0  0  0  0  0  0
    5.9630   -2.1100   -1.6640 N   0  0  0  0  0  0  0  0  0  0  0  0
    7.3990   -2.1600   -1.8150 C   0  0  0  0  0  0  0  0  0  0  0  0
    8.0520   -0.5500   -2.4990 P   0  0  0  0  0  0  0  0  0  0  0  0
    9.3300   -0.9000   -3.6100 O   0  0  0  0  0  0  0  0  0  0  0  0
    8.6750    0.4330   -1.2160 O   0  0  0  0  0  0  0  0  0  0  0  0
    4.0790   -1.0040   -0.6090 N   0  0  0  0  0  0  0  0  0  0  0  0
    3.5170   -0.0960    0.1830 C   0  0  0  0  0  0  0  0  0  0  0  0
    2.0740    0.0110    0.3810 C   0  0  0  0  0  0  0  0  0  0  0  0
    1.1870   -0.8300   -0.2450 C   0  0  0  0  0  0  0  0  0  0  0  0
   -0.1860   -0.7200   -0.0490 C   0  0  0  0  0  0  0  0  0  0  0  0
   -0.7150    0.2400    0.7830 C   0  0  0  0  0  0  0  0  0  0  0  0
   -2.1420    0.4010    1.0340 C   0  0  0  0  0  0  0  0  0  0  0  0
   -2.5290    1.4690    1.5430 O   0  0  0  0  0  0  0  0  0  0  0  0
   -3.0520   -0.6170    0.7130 N   0  0  0  0  0  0  0  0  0  0  0  0
   -4.4640   -0.6390    0.8610 C   0  0  0  0  0  0  0  0  0  0  0  0
   -5.1930    0.3240    0.0090 C   0  0  1  0  0  0  0  0  0  0  0  0
   -4.8520    0.0040   -1.4640 C   0  0  0  0  0  0  0  0  0  0  0  0
   -5.0010   -1.3720   -1.5800 O   0  0  0  0  0  0  0  0  0  0  0  0
   -6.3280   -1.7610   -1.4900 C   0  0  0  0  0  0  0  0  0  0  0  0
   -7.2120   -0.7270   -0.8740 C   0  0  0  0  0  0  0  0  0  0  0  0
   -6.6340    0.1000    0.0960 N   0  0  0  0  0  0  0  0  0  0  0  0
   -7.2970    1.3130    0.3920 C   0  0  0  0  0  0  0  0  0  0  0  0
   -6.8230    1.8050    1.7750 C   0  0  0  0  0  0  0  0  0  0  0  0
   -5.4540    2.2150    1.5250 O   0  0  0  0  0  0  0  0  0  0  0  0
   -4.9590    1.7400    0.2920 C   0  0  0  0  0  0  0  0  0  0  0  0
   -4.3490    2.5150   -0.5160 O   0  0  0  0  0  0  0  0  0  0  0  0
    0.1890    1.0990    1.4220 C   0  0  0  0  0  0  0  0  0  0  0  0
    1.5380    0.9670    1.2100 C   0  0  0  0  0  0  0  0  0  0  0  0
    4.3510    0.7580    0.8230 N   0  0  0  0  0  0  0  0  0  0  0  0
  1  2  1  0
  2  3  1  0
  3  4  2  0
  3 34  1  0
  4  5  1  0
  5  6  1  0
  5 11  2  0
  6  7  1  0
  7  8  1  0
  8  9  1  0
  8 10  1  0
 11 12  1  0
 12 13  1  0
 12 34  2  0
 13 14  2  0
 13 33  1  0
 14 15  1  0
 15 16  2  0
 16 17  1  0
 16 32  1  0
 17 18  2  0
 17 19  1  0
 19 20  1  0
 21 20  1  1
 21 22  1  0
 21 26  1  0
 21 30  1  0
 22 23  1  0
 23 24  1  0
 24 25  1  0
 25 26  1  0
 26 27  1  0
 27 28  1  0
 28 29  1  0
 29 30  1  0
 30 31  2  0
 32 33  2  0
M  END
