
     RDKit          3D

 41 44  0  0  0  0  0  0  0  0999 V2000
   -5.8730   -3.4560   -0.5650 N   0  0  0  0  0  0  0  0  0  0  0  0
   -5.5090   -2.1710   -1.0050 O   0  0  0  0  0  0  0  0  0  0  0  0
   -4.7090   -1.6530   -0.0470 C   0  0  0  0  0  0  0  0  0  0  0  0
   -3.4540   -1.1260   -0.8610 C   0  0  0  0  0  0  0  0  0  0  0  0
   -3.7220   -0.8110   -2.0040 O   0  0  0  0  0  0  0  0  0  0  0  0
   -2.2480   -1.1280   -0.1010 N   0  0  0  0  0  0  0  0  0  0  0  0
   -1.6680   -2.2440    0.4260 C   0  0  0  0  0  0  0  0  0  0  0  0
   -2.0300   -3.1730    1.4620 C   0  0  0  0  0  0  0  0  0  0  0  0
   -3.1720   -3.8370    0.8740 O   0  0  0  0  0  0  0  0  0  0  0  0
   -2.7730   -5.1420    0.8770 O   0  0  0  0  0  0  0  0  0  0  0  0
   -1.3290    0.1040   -0.1460 C   0  0  1  0  0  0  0  0  0  0  0  0
   -0.4550   -0.4930   -1.3300 C   0  0  0  0  0  0  0  0  0  0  0  0
   -1.0780   -0.5430   -2.3960 O   0  0  0  0  0  0  0  0  0  0  0  0
    0.8470   -0.9100   -1.1710 N   0  0  0  0  0  0  0  0  0  0  0  0
    1.9950   -0.1390   -0.7690 C   0  0  0  0  0  0  0  0  0  0  0  0
    2.0480    1.1730   -0.8580 N   0  0  0  0  0  0  0  0  0  0  0  0
    3.0740    1.9310   -0.6040 C   0  0  0  0  0  0  0  0  0  0  0  0
    4.2250    1.3790   -0.2040 N   0  0  0  0  0  0  0  0  0  0  0  0
    4.2520    0.0360   -0.0900 C   0  0  0  0  0  0  0  0  0  0  0  0
    3.1540   -0.7760   -0.3590 C   0  0  0  0  0  0  0  0  0  0  0  0
    3.5370   -2.0100   -0.1140 N   0  0  0  0  0  0  0  0  0  0  0  0
    4.8320   -2.0240    0.2870 C   0  0  0  0  0  0  0  0  0  0  0  0
    5.2970   -0.7360    0.3130 N   0  0  0  0  0  0  0  0  0  0  0  0
    6.6320   -0.4560    0.7200 C   0  0  0  0  0  0  0  0  0  0  0  0
    7.5960   -1.5480    0.3270 C   0  0  0  0  0  0  0  0  0  0  0  0
    6.9840   -2.7050   -0.1350 O   0  0  0  0  0  0  0  0  0  0  0  0
    5.8500   -3.0430    0.6530 C   0  0  0  0  0  0  0  0  0  0  0  0
    2.8840    3.3150   -0.7840 O   0  0  0  0  0  0  0  0  0  0  0  0
    1.6450    3.9630   -0.3980 C   0  0  0  0  0  0  0  0  0  0  0  0
    0.6480    2.9700    0.1420 C   0  0  0  0  0  0  0  0  0  0  0  0
   -0.1040    2.3400   -0.8160 O   0  0  0  0  0  0  0  0  0  0  0  0
   -1.4450    2.4600   -0.7550 C   0  0  1  0  0  0  0  0  0  0  0  0
   -2.0060    3.2030   -1.8720 C   0  0  0  0  0  0  0  0  0  0  0  0
   -1.1700    3.8460   -2.6040 O   0  0  0  0  0  0  0  0  0  0  0  0
   -3.3290    3.2840   -2.2620 O   0  0  0  0  0  0  0  0  0  0  0  0
   -2.2310    1.1320   -0.5740 C   0  0  2  0  0  0  0  0  0  0  0  0
   -3.2120    1.4990    0.5210 C   0  0  0  0  0  0  0  0  0  0  0  0
   -2.6570    2.3850    1.5350 O   0  0  0  0  0  0  0  0  0  0  0  0
   -3.3670    3.6320    1.5510 C   0  0  0  0  0  0  0  0  0  0  0  0
   -4.3490    3.7270    0.7240 O   0  0  0  0  0  0  0  0  0  0  0  0
   -3.0370    4.6610    2.3530 O   0  0  0  0  0  0  0  0  0  0  0  0
  1  2  1  0
  2  3  1  0
  3  4  1  0
  4  5  2  0
  4  6  1  0
  6  7  1  0
 11  6  1  6
  7  8  1  0
  8  9  1  0
  9 10  1  0
 11 12  1  0
 11 36  1  0
 12 13  2  0
 12 14  1  0
 14 15  1  0
 15 16  1  0
 15 20  2  0
 16 17  2  0
 17 18  1  0
 17 28  1  0
 18 19  2  0
 19 20  1  0
 19 23  1  0
 20 21  1  0
 21 22  2  0
 22 23  1  0
 22 27  1  0
 23 24  1  0
 24 25  1  0
 25 26  1  0
 26 27  1  0
 28 29  1  0
 29 30  1  0
 30 31  1  0
 31 32  1  0
 32 33  1  6
 32 36  1  0
 33 34  2  0
 33 35  1  0
 36 37  1  1
 37 38  1  0
 38 39  1  0
 39 40  2  0
 39 41  1  0
M  END
