
     RDKit          3D

 42 44  0  0  0  0  0  0  0  0999 V2000
    8.4610    1.2430   -1.4250 N   0  0  0  0  0  0  0  0  0  0  0  0
    9.0910    1.7830   -0.3740 O   0  0  0  0  0  0  0  0  0  0  0  0
    8.5330    0.9930    0.7120 C   0  0  0  0  0  0  0  0  0  0  0  0
    7.4070    1.7960    1.0970 C   0  0  0  0  0  0  0  0  0  0  0  0
    6.3970    1.3650    2.0010 N   0  0  0  0  0  0  0  0  0  0  0  0
    5.6710    0.0590    1.5610 C   0  0  0  0  0  0  0  0  0  0  0  0
    6.2000   -0.6420    0.8350 O   0  0  0  0  0  0  0  0  0  0  0  0
    4.4070    0.1930    2.2000 N   0  0  0  0  0  0  0  0  0  0  0  0
    3.5170   -0.6810    0.9670 C   0  0  0  0  0  0  0  0  0  0  0  0
    4.2210   -1.4670    0.4030 O   0  0  0  0  0  0  0  0  0  0  0  0
    2.1380   -0.3400    0.7940 C   0  0  0  0  0  0  0  0  0  0  0  0
    1.1210   -1.1850    1.1250 N   0  0  0  0  0  0  0  0  0  0  0  0
    0.0360   -0.6880    2.0160 C   0  0  0  0  0  0  0  0  0  0  0  0
   -0.4660    0.6760    1.4750 C   0  0  0  0  0  0  0  0  0  0  0  0
   -1.8730    0.9280    1.8160 C   0  0  0  0  0  0  0  0  0  0  0  0
   -2.8180    0.8970    0.7000 N   0  0  0  0  0  0  0  0  0  0  0  0
   -3.2990    2.1210    0.2220 C   0  0  0  0  0  0  0  0  0  0  0  0
   -2.7550    2.7820   -0.6980 O   0  0  0  0  0  0  0  0  0  0  0  0
   -4.4770    2.6400    0.8130 O   0  0  0  0  0  0  0  0  0  0  0  0
   -5.1770    3.7350    0.4070 C   0  0  0  0  0  0  0  0  0  0  0  0
   -4.6080    5.0930    0.5200 C   0  0  0  0  0  0  0  0  0  0  0  0
   -3.8710    5.3880    1.4920 O   0  0  0  0  0  0  0  0  0  0  0  0
   -4.9250    6.0220   -0.5400 N   0  0  0  0  0  0  0  0  0  0  0  0
   -4.4230    7.2520   -0.5520 O   0  0  0  0  0  0  0  0  0  0  0  0
   -5.2150    8.0530   -1.2050 O   0  0  0  0  0  0  0  0  0  0  0  0
   -3.2430   -0.3460    0.1680 C   0  0  0  0  0  0  0  0  0  0  0  0
   -2.9210   -0.6800   -1.2210 C   0  0  0  0  0  0  0  0  0  0  0  0
   -2.1200   -1.9030   -1.4690 C   0  0  2  0  0  0  0  0  0  0  0  0
   -2.3440   -2.3010   -2.7740 O   0  0  0  0  0  0  0  0  0  0  0  0
   -3.5850   -3.1700   -2.7530 C   0  0  0  0  0  0  0  0  0  0  0  0
   -2.8730   -4.4890   -2.3440 C   0  0  0  0  0  0  0  0  0  0  0  0
   -2.2070   -4.3460   -1.2190 C   0  0  0  0  0  0  0  0  0  0  0  0
   -1.6030   -5.5830   -0.8830 C   0  0  0  0  0  0  0  0  0  0  0  0
   -0.8250   -5.8570    0.0880 O   0  0  0  0  0  0  0  0  0  0  0  0
   -2.0200   -6.5120   -1.9450 N   0  0  0  0  0  0  0  0  0  0  0  0
   -2.7760   -5.8090   -2.7980 C   0  0  0  0  0  0  0  0  0  0  0  0
   -3.4010   -6.2070   -3.8970 O   0  0  0  0  0  0  0  0  0  0  0  0
   -2.3350   -3.0420   -0.4940 C   0  0  1  0  0  0  0  0  0  0  0  0
   -1.4580   -3.0040    0.5770 O   0  0  0  0  0  0  0  0  0  0  0  0
   -0.2470   -3.1050    0.1150 O   0  0  0  0  0  0  0  0  0  0  0  0
    0.8750   -2.4710    0.5690 C   0  0  0  0  0  0  0  0  0  0  0  0
    1.9940   -3.1660    0.4660 O   0  0  0  0  0  0  0  0  0  0  0  0
  1  2  1  0
  2  3  1  0
  3  4  1  0
  4  5  1  0
  5  6  1  0
  6  7  2  0
  6  8  1  0
  8  9  1  0
  9 10  2  0
  9 11  1  0
 11 12  1  0
 12 13  1  0
 12 41  1  0
 13 14  1  0
 14 15  1  0
 15 16  1  0
 16 17  1  0
 16 26  1  0
 17 18  2  0
 17 19  1  0
 19 20  1  0
 20 21  1  0
 21 22  2  0
 21 23  1  0
 23 24  1  0
 24 25  1  0
 26 27  1  0
 28 27  1  1
 28 29  1  0
 28 38  1  0
 29 30  1  0
 30 31  1  0
 31 32  2  0
 31 36  1  0
 32 33  1  0
 32 38  1  0
 33 34  2  0
 33 35  1  0
 35 36  1  0
 36 37  2  0
 38 39  1  1
 39 40  1  0
 40 41  1  0
 41 42  2  0
M  END
