
     RDKit          3D

 41 44  0  0  0  0  0  0  0  0999 V2000
    0.9360    5.5730   -2.5560 C   0  0  0  0  0  0  0  0  0  0  0  0
    0.7990    5.1120   -1.2000 O   0  0  0  0  0  0  0  0  0  0  0  0
    0.3710    3.8860   -0.9920 C   0  0  0  0  0  0  0  0  0  0  0  0
    0.0660    3.0450   -1.9830 O   0  0  0  0  0  0  0  0  0  0  0  0
    0.1210    3.1730    0.2090 N   0  0  0  0  0  0  0  0  0  0  0  0
   -0.1910    1.7850   -0.0040 C   0  0  0  0  0  0  0  0  0  0  0  0
   -1.2520    1.4910    0.4860 N   0  0  0  0  0  0  0  0  0  0  0  0
   -2.1570    0.5060    0.6880 C   0  0  0  0  0  0  0  0  0  0  0  0
   -2.4940   -0.0290    1.8450 C   0  0  0  0  0  0  0  0  0  0  0  0
   -3.5060   -1.0690    1.6680 C   0  0  2  0  0  0  0  0  0  0  0  0
   -4.6450   -0.7260    2.6320 C   0  0  0  0  0  0  0  0  0  0  0  0
   -3.0300   -2.3940    1.9180 N   0  0  0  0  0  0  0  0  0  0  0  0
   -3.9110   -3.4920    1.7810 C   0  0  0  0  0  0  0  0  0  0  0  0
   -5.1160   -3.3790    1.4460 O   0  0  0  0  0  0  0  0  0  0  0  0
   -4.0480   -0.8750    0.2890 C   0  0  0  0  0  0  0  0  0  0  0  0
   -2.9740   -0.1040   -0.3330 N   0  0  0  0  0  0  0  0  0  0  0  0
   -2.7700    0.0380   -1.7580 C   0  0  0  0  0  0  0  0  0  0  0  0
   -3.0230   -1.3300   -2.3940 C   0  0  0  0  0  0  0  0  0  0  0  0
   -2.2310   -2.3380   -1.8630 O   0  0  0  0  0  0  0  0  0  0  0  0
   -1.2070   -2.6260   -2.5850 O   0  0  0  0  0  0  0  0  0  0  0  0
   -0.2260   -3.2350   -1.8260 C   0  0  1  0  0  0  0  0  0  0  0  0
    1.0460   -2.7670   -2.4050 N   0  0  0  0  0  0  0  0  0  0  0  0
    1.7010   -1.6960   -1.7600 C   0  0  0  0  0  0  0  0  0  0  0  0
    2.3810   -0.9020   -2.4220 O   0  0  0  0  0  0  0  0  0  0  0  0
    1.5540   -1.5540   -0.3000 C   0  0  2  0  0  0  0  0  0  0  0  0
    0.9940   -2.9450    0.1390 C   0  0  0  0  0  0  0  0  0  0  0  0
   -0.2610   -2.9930   -0.4840 O   0  0  0  0  0  0  0  0  0  0  0  0
    0.3900   -0.6500    0.0810 C   0  0  0  0  0  0  0  0  0  0  0  0
    0.8250    0.7320   -0.1160 N   0  0  0  0  0  0  0  0  0  0  0  0
    2.1930    0.8940   -0.3110 C   0  0  0  0  0  0  0  0  0  0  0  0
    2.5970    1.8300   -1.0630 O   0  0  0  0  0  0  0  0  0  0  0  0
    3.1630   -0.0280    0.3650 C   0  0  2  0  0  0  0  0  0  0  0  0
    3.1400    0.3780    1.8170 C   0  0  0  0  0  0  0  0  0  0  0  0
    3.6730    1.6150    2.2100 N   0  0  0  0  0  0  0  0  0  0  0  0
    5.0470    1.9570    2.2200 C   0  0  0  0  0  0  0  0  0  0  0  0
    5.9330    1.1150    1.8870 O   0  0  0  0  0  0  0  0  0  0  0  0
    5.4280    3.2470    2.6060 O   0  0  0  0  0  0  0  0  0  0  0  0
    4.4550    0.1400   -0.2610 C   0  0  0  0  0  0  0  0  0  0  0  0
    5.2270   -0.8230   -0.4400 O   0  0  0  0  0  0  0  0  0  0  0  0
    4.8470    1.4160   -0.6890 O   0  0  0  0  0  0  0  0  0  0  0  0
    2.6830   -1.3460    0.4020 O   0  0  0  0  0  0  0  0  0  0  0  0
  1  2  1  0
  2  3  1  0
  3  4  2  0
  3  5  1  0
  5  6  1  0
  6  7  2  0
  6 29  1  0
  7  8  1  0
  8  9  2  0
  8 16  1  0
  9 10  1  0
 10 11  1  1
 10 12  1  0
 10 15  1  0
 12 13  1  0
 13 14  2  0
 15 16  1  0
 16 17  1  0
 17 18  1  0
 18 19  1  0
 19 20  1  0
 21 20  1  6
 21 22  1  0
 21 27  1  0
 22 23  1  0
 23 24  2  0
 23 25  1  0
 25 26  1  1
 25 28  1  0
 25 41  1  0
 26 27  1  0
 28 29  1  0
 29 30  1  0
 30 31  2  0
 30 32  1  0
 32 33  1  1
 32 38  1  0
 32 41  1  0
 33 34  1  0
 34 35  1  0
 35 36  2  0
 35 37  1  0
 38 39  2  0
 38 40  1  0
M  END
