
     RDKit          3D

 42 45  0  0  0  0  0  0  0  0999 V2000
    7.9710   -0.2730   -1.4250 O   0  0  0  0  0  0  0  0  0  0  0  0
    8.3350   -1.1620   -0.6160 C   0  0  0  0  0  0  0  0  0  0  0  0
    9.5620   -1.8100   -0.8060 O   0  0  0  0  0  0  0  0  0  0  0  0
    7.5220   -1.4800    0.4370 O   0  0  0  0  0  0  0  0  0  0  0  0
    6.2780   -0.9030    0.7270 C   0  0  0  0  0  0  0  0  0  0  0  0
    5.3190   -1.1390   -0.4260 C   0  0  0  0  0  0  0  0  0  0  0  0
    4.0640   -0.5170   -0.0520 N   0  0  0  0  0  0  0  0  0  0  0  0
    3.0110   -1.2270    0.6730 C   0  0  0  0  0  0  0  0  0  0  0  0
    1.6890   -1.1120   -0.0920 C   0  0  2  0  0  0  0  0  0  0  0  0
    1.3370    0.3000   -0.4090 C   0  0  0  0  0  0  0  0  0  0  0  0
    2.4170    1.2410   -0.3300 N   0  0  0  0  0  0  0  0  0  0  0  0
    2.1050    2.6390   -0.2010 C   0  0  0  0  0  0  0  0  0  0  0  0
    1.5080    2.9190    1.1210 C   0  0  0  0  0  0  0  0  0  0  0  0
    1.6820    2.0760    2.0440 O   0  0  0  0  0  0  0  0  0  0  0  0
    0.7670    4.0550    1.4060 O   0  0  0  0  0  0  0  0  0  0  0  0
   -0.1870    4.6040    0.4980 C   0  0  0  0  0  0  0  0  0  0  0  0
   -1.4380    3.8170    0.3970 C   0  0  0  0  0  0  0  0  0  0  0  0
   -1.3690    3.1310   -0.7290 N   0  0  0  0  0  0  0  0  0  0  0  0
   -2.3270    2.3010   -1.1510 O   0  0  0  0  0  0  0  0  0  0  0  0
   -3.4430    2.1730   -0.3430 C   0  0  0  0  0  0  0  0  0  0  0  0
   -4.2960    1.3310   -0.8820 N   0  0  0  0  0  0  0  0  0  0  0  0
   -5.5210    0.9680   -0.3400 C   0  0  0  0  0  0  0  0  0  0  0  0
   -5.7520    1.5910    0.8370 C   0  0  0  0  0  0  0  0  0  0  0  0
   -4.8410    2.5080    1.4360 C   0  0  0  0  0  0  0  0  0  0  0  0
   -3.6350    2.8560    0.8880 C   0  0  0  0  0  0  0  0  0  0  0  0
   -2.5570    3.7090    1.2390 N   0  0  0  0  0  0  0  0  0  0  0  0
   -6.2240    0.0320   -1.1380 N   0  0  0  0  0  0  0  0  0  0  0  0
   -6.0910   -1.3570   -0.7590 C   0  0  0  0  0  0  0  0  0  0  0  0
   -6.9870   -2.2130   -0.9730 O   0  0  0  0  0  0  0  0  0  0  0  0
   -4.8480   -1.8360   -0.0800 C   0  0  1  0  0  0  0  0  0  0  0  0
   -4.7770   -3.2140   -0.0960 O   0  0  0  0  0  0  0  0  0  0  0  0
   -4.6670   -3.6960    1.1280 O   0  0  0  0  0  0  0  0  0  0  0  0
   -5.8110   -4.1980    1.5350 O   0  0  0  0  0  0  0  0  0  0  0  0
   -3.7500   -1.3690   -0.8260 O   0  0  0  0  0  0  0  0  0  0  0  0
   -2.6340   -1.9330   -0.4280 O   0  0  0  0  0  0  0  0  0  0  0  0
   -1.7510   -1.9700   -1.5000 C   0  0  0  0  0  0  0  0  0  0  0  0
   -0.5930   -2.8930   -1.1450 C   0  0  0  0  0  0  0  0  0  0  0  0
   -0.2300   -2.7860    0.2570 N   0  0  0  0  0  0  0  0  0  0  0  0
    0.6700   -1.8000    0.7400 C   0  0  0  0  0  0  0  0  0  0  0  0
    0.6100   -1.4800    1.9530 O   0  0  0  0  0  0  0  0  0  0  0  0
    3.7780    0.8440   -0.3750 C   0  0  0  0  0  0  0  0  0  0  0  0
    4.7120    1.6280   -0.6810 O   0  0  0  0  0  0  0  0  0  0  0  0
  1  2  2  0
  2  3  1  0
  2  4  1  0
  4  5  1  0
  5  6  1  0
  6  7  1  0
  7  8  1  0
  7 41  1  0
  9  8  1  1
  9 10  1  0
  9 39  1  0
 10 11  1  0
 11 12  1  0
 11 41  1  0
 12 13  1  0
 13 14  2  0
 13 15  1  0
 15 16  1  0
 16 17  1  0
 17 18  2  0
 17 26  1  0
 18 19  1  0
 19 20  1  0
 20 21  2  0
 20 25  1  0
 21 22  1  0
 22 23  2  0
 22 27  1  0
 23 24  1  0
 24 25  2  0
 25 26  1  0
 27 28  1  0
 28 29  2  0
 28 30  1  0
 30 31  1  6
 30 34  1  0
 31 32  1  0
 32 33  1  0
 34 35  1  0
 35 36  1  0
 36 37  1  0
 37 38  1  0
 38 39  1  0
 39 40  2  0
 41 42  2  0
M  END
