
     RDKit          3D

 42 44  0  0  0  0  0  0  0  0999 V2000
    4.2580    0.2720    3.1280 C   0  0  0  0  0  0  0  0  0  0  0  0
    4.3250    0.6340    1.6350 C   0  0  0  0  0  0  0  0  0  0  0  0
    5.5900    0.4380    1.1920 O   0  0  0  0  0  0  0  0  0  0  0  0
    6.1000    0.7610   -0.3250 P   0  0  0  0  0  0  0  0  0  0  0  0
    7.8460    0.2250   -0.7040 C   0  0  0  0  0  0  0  0  0  0  0  0
    5.0390    0.7460   -1.7820 C   0  0  0  0  0  0  0  0  0  0  0  0
    3.6270    0.3430   -1.4780 C   0  0  0  0  0  0  0  0  0  0  0  0
    2.8030    0.3400   -2.7810 C   0  0  2  0  0  0  0  0  0  0  0  0
    2.7480    1.6490   -3.4410 C   0  0  0  0  0  0  0  0  0  0  0  0
    1.5320   -0.2920   -2.4660 N   0  0  0  0  0  0  0  0  0  0  0  0
    0.7570    0.4150   -1.5270 C   0  0  0  0  0  0  0  0  0  0  0  0
   -0.6460    0.1300   -1.2730 C   0  0  2  0  0  0  0  0  0  0  0  0
   -1.3230    0.3320   -2.5240 O   0  0  0  0  0  0  0  0  0  0  0  0
   -1.1640    1.2760   -0.4150 C   0  0  0  0  0  0  0  0  0  0  0  0
   -0.8420    1.2670    0.7900 O   0  0  0  0  0  0  0  0  0  0  0  0
   -1.9490    2.2900   -0.9000 O   0  0  0  0  0  0  0  0  0  0  0  0
   -2.4370    3.3370   -0.1250 C   0  0  0  0  0  0  0  0  0  0  0  0
   -1.6130    4.3240    0.3710 C   0  0  0  0  0  0  0  0  0  0  0  0
   -2.0860    5.3650    1.1360 C   0  0  0  0  0  0  0  0  0  0  0  0
   -3.4550    5.4720    1.4530 C   0  0  0  0  0  0  0  0  0  0  0  0
   -3.9030    6.5480    2.2570 N   0  0  0  0  0  0  0  0  0  0  0  0
   -5.2140    6.9930    2.4120 C   0  0  0  0  0  0  0  0  0  0  0  0
   -6.1480    6.4350    1.8000 O   0  0  0  0  0  0  0  0  0  0  0  0
   -4.2640    4.4950    0.9610 C   0  0  0  0  0  0  0  0  0  0  0  0
   -3.7810    3.4310    0.1790 C   0  0  0  0  0  0  0  0  0  0  0  0
   -1.1540   -1.1550   -0.7450 C   0  0  2  0  0  0  0  0  0  0  0  0
   -0.9090   -2.3260   -1.6310 C   0  0  0  0  0  0  0  0  0  0  0  0
   -1.4070   -3.6030   -1.0770 C   0  0  0  0  0  0  0  0  0  0  0  0
   -2.6480   -4.0790   -1.3480 C   0  0  0  0  0  0  0  0  0  0  0  0
   -3.0730   -5.2730   -0.8100 C   0  0  0  0  0  0  0  0  0  0  0  0
   -2.2140   -5.9750    0.0090 C   0  0  0  0  0  0  0  0  0  0  0  0
   -2.5820   -7.2010    0.5920 O   0  0  0  0  0  0  0  0  0  0  0  0
   -0.9410   -5.5220    0.3090 C   0  0  0  0  0  0  0  0  0  0  0  0
   -0.5710   -4.3190   -0.2590 C   0  0  0  0  0  0  0  0  0  0  0  0
   -2.6480   -0.9360   -0.5110 C   0  0  0  0  0  0  0  0  0  0  0  0
   -2.9730   -1.5870    0.7660 C   0  0  0  0  0  0  0  0  0  0  0  0
   -1.7220   -1.9750    1.3750 N   0  0  0  0  0  0  0  0  0  0  0  0
   -1.6720   -2.7760    2.5570 C   0  0  0  0  0  0  0  0  0  0  0  0
   -2.8670   -3.2690    3.2600 C   0  0  0  0  0  0  0  0  0  0  0  0
   -0.5360   -3.0630    3.0060 O   0  0  0  0  0  0  0  0  0  0  0  0
   -0.6630   -1.4320    0.6300 C   0  0  0  0  0  0  0  0  0  0  0  0
    0.4830   -1.2430    1.1190 O   0  0  0  0  0  0  0  0  0  0  0  0
  1  2  1  0
  2  3  1  0
  3  4  1  0
  4  5  1  0
  4  6  1  0
  6  7  1  0
  7  8  1  0
  8  9  1  1
  8 10  1  0
 10 11  1  0
 11 12  1  0
 12 13  1  6
 12 14  1  0
 12 26  1  0
 14 15  2  0
 14 16  1  0
 16 17  1  0
 17 18  2  0
 17 25  1  0
 18 19  1  0
 19 20  2  0
 20 21  1  0
 20 24  1  0
 21 22  1  0
 22 23  2  0
 24 25  2  0
 26 27  1  6
 26 35  1  0
 26 41  1  0
 27 28  1  0
 28 29  2  0
 28 34  1  0
 29 30  1  0
 30 31  2  0
 31 32  1  0
 31 33  1  0
 33 34  2  0
 35 36  1  0
 36 37  1  0
 37 38  1  0
 37 41  1  0
 38 39  1  0
 38 40  2  0
 41 42  2  0
M  END
