
     RDKit          3D

  9  8  0  0  0  0  0  0  0  0999 V2000
   -2.6590    0.3220    0.2100 C   0  0  0  0  0  0  0  0  0  0  0  0
   -2.0350   -1.0550    0.3000 C   0  0  0  0  0  0  0  0  0  0  0  0
   -0.7370   -0.9720   -0.2520 O   0  0  0  0  0  0  0  0  0  0  0  0
    0.1890   -0.1100    0.3110 C   0  0  0  0  0  0  0  0  0  0  0  0
   -0.2080    0.5660    1.3170 O   0  0  0  0  0  0  0  0  0  0  0  0
    1.5450    0.0340   -0.1970 C   0  0  0  0  0  0  0  0  0  0  0  0
    2.4330    0.9340    0.4320 N   0  0  0  0  0  0  0  0  0  0  0  0
    1.9130   -0.6590   -1.2090 N   0  0  0  0  0  0  0  0  0  0  0  0
    3.1750   -0.5810   -1.7480 O   0  0  0  0  0  0  0  0  0  0  0  0
  1  2  1  0
  2  3  1  0
  3  4  1  0
  4  5  2  0
  4  6  1  0
  6  7  1  0
  6  8  2  3
  8  9  1  0
M  END
