
     RDKit          3D

  9  8  0  0  0  0  0  0  0  0999 V2000
    2.8120   -1.5600   -0.3210 C   0  0  0  0  0  0  0  0  0  0  0  0
    1.4910   -1.1290   -0.1750 O   0  0  0  0  0  0  0  0  0  0  0  0
    1.5410    0.2500    0.0420 C   0  0  0  0  0  0  0  0  0  0  0  0
    0.2050    0.8410    0.2140 C   0  0  0  0  0  0  0  0  0  0  0  0
    0.0910    2.2140    0.4400 N   0  0  0  0  0  0  0  0  0  0  0  0
   -0.8260    0.0960    0.1560 N   0  0  0  0  0  0  0  0  0  0  0  0
   -2.0810    0.6340    0.3150 O   0  0  0  0  0  0  0  0  0  0  0  0
   -3.1830   -0.1010   -0.2210 C   0  0  0  0  0  0  0  0  0  0  0  0
   -3.2100   -1.3490    0.4010 O   0  0  0  0  0  0  0  0  0  0  0  0
  1  2  1  0
  2  3  1  0
  3  4  1  0
  4  5  1  0
  4  6  2  3
  6  7  1  0
  7  8  1  0
  8  9  1  0
M  END
