
     RDKit          3D

 20 22  0  0  0  0  0  0  0  0999 V2000
    5.1090    0.7920    0.9430 N   0  0  0  0  0  0  0  0  0  0  0  0
    4.0190   -0.0220    0.5410 C   0  0  0  0  0  0  0  0  0  0  0  0
    4.1650   -1.3520    0.4120 N   0  0  0  0  0  0  0  0  0  0  0  0
    3.1550   -2.1570    0.0320 C   0  0  0  0  0  0  0  0  0  0  0  0
    1.9680   -1.5990   -0.2220 N   0  0  0  0  0  0  0  0  0  0  0  0
    1.7280   -0.2990   -0.1220 C   0  0  0  0  0  0  0  0  0  0  0  0
    2.7830    0.5240    0.2710 C   0  0  0  0  0  0  0  0  0  0  0  0
    2.2700    1.7930    0.2920 C   0  0  0  0  0  0  0  0  0  0  0  0
    3.2980    3.3370    0.7700 Br  0  0  0  0  0  0  0  0  0  0  0  0
    0.9430    1.7380   -0.0780 C   0  0  0  0  0  0  0  0  0  0  0  0
    0.6240    0.4560   -0.3290 N   0  0  0  0  0  0  0  0  0  0  0  0
   -0.6630   -0.0420   -0.7450 C   0  0  2  0  0  0  0  0  0  0  0  0
   -1.6360    0.9000   -0.4390 O   0  0  0  0  0  0  0  0  0  0  0  0
   -2.8200    0.2000   -0.2330 C   0  0  2  0  0  0  0  0  0  0  0  0
   -3.7950    1.0510    0.5660 C   0  0  0  0  0  0  0  0  0  0  0  0
   -4.1080    2.2250   -0.0750 O   0  0  0  0  0  0  0  0  0  0  0  0
   -2.3400   -0.9650    0.6080 C   0  0  1  0  0  0  0  0  0  0  0  0
   -3.2480   -2.0180    0.6010 O   0  0  0  0  0  0  0  0  0  0  0  0
   -1.0590   -1.3270   -0.1130 C   0  0  1  0  0  0  0  0  0  0  0  0
   -1.4080   -2.2750   -1.0930 O   0  0  0  0  0  0  0  0  0  0  0  0
  1  2  1  0
  2  3  2  0
  2  7  1  0
  3  4  1  0
  4  5  2  0
  5  6  1  0
  6  7  2  0
  6 11  1  0
  7  8  1  0
  8  9  1  0
  8 10  2  0
 10 11  1  0
 12 11  1  1
 12 13  1  0
 12 19  1  0
 13 14  1  0
 14 15  1  1
 14 17  1  0
 15 16  1  0
 17 18  1  6
 17 19  1  0
 19 20  1  6
M  END
