
     RDKit          3D

 27 29  0  0  0  0  0  0  0  0999 V2000
   -4.3810    2.6200    2.4190 C   0  0  0  0  0  0  0  0  0  0  0  0
   -4.2660    1.6580    1.2850 C   0  0  0  0  0  0  0  0  0  0  0  0
   -5.3540    1.1480    0.6150 C   0  0  0  0  0  0  0  0  0  0  0  0
   -5.2040    0.2540   -0.4340 C   0  0  0  0  0  0  0  0  0  0  0  0
   -6.3630   -0.3080   -1.1710 C   0  0  0  0  0  0  0  0  0  0  0  0
   -3.9270   -0.1430   -0.8260 C   0  0  0  0  0  0  0  0  0  0  0  0
   -3.7890   -1.0970   -1.9360 C   0  0  0  0  0  0  0  0  0  0  0  0
   -2.8400    0.3700   -0.1550 C   0  0  0  0  0  0  0  0  0  0  0  0
   -1.4950   -0.0130   -0.5610 C   0  0  0  0  0  0  0  0  0  0  0  0
   -1.0940   -0.0010   -1.8810 C   0  0  0  0  0  0  0  0  0  0  0  0
    0.2040   -0.3660   -2.2140 C   0  0  0  0  0  0  0  0  0  0  0  0
    1.1170   -0.7440   -1.2530 C   0  0  0  0  0  0  0  0  0  0  0  0
    0.7450   -0.7650    0.0730 C   0  0  0  0  0  0  0  0  0  0  0  0
    1.6740   -1.1220    1.1410 C   0  0  0  0  0  0  0  0  0  0  0  0
    1.2390   -1.6100    2.2290 O   0  0  0  0  0  0  0  0  0  0  0  0
    3.0890   -0.9200    0.9650 C   0  0  0  0  0  0  0  0  0  0  0  0
    3.9800   -1.7520    1.6010 C   0  0  0  0  0  0  0  0  0  0  0  0
    5.3450   -1.5650    1.4830 C   0  0  0  0  0  0  0  0  0  0  0  0
    5.7810   -0.5040    0.6970 C   0  0  0  0  0  0  0  0  0  0  0  0
    7.2450   -0.2530    0.5500 C   0  0  0  0  0  0  0  0  0  0  0  0
    7.6970    0.7650    1.5510 C   0  0  0  0  0  0  0  0  0  0  0  0
    6.8230    1.2430    2.3150 O   0  0  0  0  0  0  0  0  0  0  0  0
    9.0290    1.1430    1.6050 O   0  0  0  0  0  0  0  0  0  0  0  0
    4.9220    0.3470    0.0470 C   0  0  0  0  0  0  0  0  0  0  0  0
    3.5580    0.1150    0.2000 C   0  0  0  0  0  0  0  0  0  0  0  0
   -0.5730   -0.3930    0.3840 C   0  0  0  0  0  0  0  0  0  0  0  0
   -3.0020    1.2750    0.9070 C   0  0  0  0  0  0  0  0  0  0  0  0
  1  2  1  0
  2  3  2  0
  2 27  1  0
  3  4  1  0
  4  5  1  0
  4  6  2  0
  6  7  1  0
  6  8  1  0
  8  9  1  0
  8 27  2  0
  9 10  2  0
  9 26  1  0
 10 11  1  0
 11 12  2  0
 12 13  1  0
 13 14  1  0
 13 26  2  0
 14 15  2  0
 14 16  1  0
 16 17  2  0
 16 25  1  0
 17 18  1  0
 18 19  2  0
 19 20  1  0
 19 24  1  0
 20 21  1  0
 21 22  2  0
 21 23  1  0
 24 25  2  0
M  CHG  1  23  -1
M  END
