
     RDKit          3D

  8  7  0  0  0  0  0  0  0  0999 V2000
    3.1850    0.0720    0.4650 C   0  0  0  0  0  0  0  0  0  0  0  0
    1.8580   -0.1790    0.9170 O   0  0  0  0  0  0  0  0  0  0  0  0
    0.8280   -0.4160   -0.0200 C   0  0  0  0  0  0  0  0  0  0  0  0
    1.0890   -0.4370   -1.2120 O   0  0  0  0  0  0  0  0  0  0  0  0
   -0.4930   -0.6300    0.4990 N   0  0  0  0  0  0  0  0  0  0  0  0
   -1.5540   -0.8780   -0.4330 N   0  0  0  0  0  0  0  0  0  0  0  0
   -2.5890    0.1310   -0.0260 C   0  0  0  0  0  0  0  0  0  0  0  0
   -2.2120    1.3910   -0.3460 O   0  0  0  0  0  0  0  0  0  0  0  0
  1  2  1  0
  2  3  1  0
  3  4  2  0
  3  5  1  0
  5  6  1  0
  6  7  1  0
  7  8  1  0
M  END
