
     RDKit          3D

 25 26  0  0  0  0  0  0  0  0999 V2000
   -4.7530    2.7920   -0.2070 C   0  0  0  0  0  0  0  0  0  0  0  0
   -3.6450    1.7920   -0.1810 C   0  0  0  0  0  0  0  0  0  0  0  0
   -4.0890    0.3870   -0.1500 C   0  0  0  0  0  0  0  0  0  0  0  0
   -5.3360    0.0500    0.2970 C   0  0  0  0  0  0  0  0  0  0  0  0
   -5.7450   -1.2780    0.3270 C   0  0  0  0  0  0  0  0  0  0  0  0
   -7.1040   -1.6660    0.7900 C   0  0  0  0  0  0  0  0  0  0  0  0
   -4.8870   -2.2220   -0.0920 N   0  0  0  0  0  0  0  0  0  0  0  0
   -3.6690   -1.9200   -0.5310 C   0  0  0  0  0  0  0  0  0  0  0  0
   -2.9030   -2.8210   -0.9100 O   0  0  0  0  0  0  0  0  0  0  0  0
   -3.2350   -0.5980   -0.5740 C   0  0  0  0  0  0  0  0  0  0  0  0
   -1.9470   -0.3010   -1.0870 N   0  0  0  0  0  0  0  0  0  0  0  0
   -0.7690   -0.2500   -0.2750 C   0  0  0  0  0  0  0  0  0  0  0  0
   -0.8380   -0.4440    0.9460 O   0  0  0  0  0  0  0  0  0  0  0  0
    0.4920    0.0190   -0.8690 N   0  0  0  0  0  0  0  0  0  0  0  0
    1.7250    0.0970   -0.2280 C   0  0  0  0  0  0  0  0  0  0  0  0
    1.8860    0.0780    1.1300 C   0  0  0  0  0  0  0  0  0  0  0  0
    3.1680    0.1620    1.6960 C   0  0  0  0  0  0  0  0  0  0  0  0
    4.2730    0.2640    0.9040 C   0  0  0  0  0  0  0  0  0  0  0  0
    5.5640    0.3470    1.4620 O   0  0  0  0  0  0  0  0  0  0  0  0
    6.6890    0.4510    0.5950 C   0  0  0  0  0  0  0  0  0  0  0  0
    7.9300    0.5130    1.4200 C   0  0  0  0  0  0  0  0  0  0  0  0
    8.0680   -0.6370    2.2110 O   0  0  0  0  0  0  0  0  0  0  0  0
    4.1390    0.2880   -0.4880 C   0  0  0  0  0  0  0  0  0  0  0  0
    2.8840    0.2040   -1.0200 C   0  0  0  0  0  0  0  0  0  0  0  0
    2.7540    0.2120   -2.4890 C   0  0  0  0  0  0  0  0  0  0  0  0
  1  2  1  0
  2  3  1  0
  3  4  1  0
  3 10  2  0
  4  5  2  0
  5  6  1  0
  5  7  1  0
  7  8  1  0
  8  9  2  0
  8 10  1  0
 10 11  1  0
 11 12  1  0
 12 13  2  0
 12 14  1  0
 14 15  1  0
 15 16  2  0
 15 24  1  0
 16 17  1  0
 17 18  2  0
 18 19  1  0
 18 23  1  0
 19 20  1  0
 20 21  1  0
 21 22  1  0
 23 24  2  0
 24 25  1  0
M  END
