
     RDKit          3D

 20 22  0  0  0  0  0  0  0  0999 V2000
   -4.9750   -0.0020   -0.9310 N   0  0  0  0  0  0  0  0  0  0  0  0
   -3.8840   -0.5260   -0.2020 C   0  0  0  0  0  0  0  0  0  0  0  0
   -3.9830   -1.6740    0.5190 N   0  0  0  0  0  0  0  0  0  0  0  0
   -2.9490   -2.1760    1.2140 C   0  0  0  0  0  0  0  0  0  0  0  0
   -1.7640   -1.5420    1.2150 N   0  0  0  0  0  0  0  0  0  0  0  0
   -1.6210   -0.3910    0.5080 C   0  0  0  0  0  0  0  0  0  0  0  0
   -2.6730    0.1370   -0.2110 C   0  0  0  0  0  0  0  0  0  0  0  0
   -2.2000    1.2930   -0.8050 C   0  0  0  0  0  0  0  0  0  0  0  0
   -3.1420    2.3520   -1.8340 Cl  0  0  0  0  0  0  0  0  0  0  0  0
   -0.8810    1.4190   -0.4230 C   0  0  0  0  0  0  0  0  0  0  0  0
   -0.5320    0.3950    0.3750 N   0  0  0  0  0  0  0  0  0  0  0  0
    0.7760    0.1630    0.9890 C   0  0  2  0  0  0  0  0  0  0  0  0
    1.5470    1.2890    1.0090 O   0  0  0  0  0  0  0  0  0  0  0  0
    2.7110    1.0680    0.3250 C   0  0  2  0  0  0  0  0  0  0  0  0
    2.5430    1.3720   -1.1480 C   0  0  0  0  0  0  0  0  0  0  0  0
    3.7030    1.1570   -1.8580 O   0  0  0  0  0  0  0  0  0  0  0  0
    2.9650   -0.4270    0.4550 C   0  0  1  0  0  0  0  0  0  0  0  0
    3.3890   -0.6590    1.7580 O   0  0  0  0  0  0  0  0  0  0  0  0
    1.5380   -0.9360    0.3080 C   0  0  1  0  0  0  0  0  0  0  0  0
    1.3880   -2.1640    0.9540 O   0  0  0  0  0  0  0  0  0  0  0  0
  1  2  1  0
  2  3  2  0
  2  7  1  0
  3  4  1  0
  4  5  2  0
  5  6  1  0
  6  7  2  0
  6 11  1  0
  7  8  1  0
  8  9  1  0
  8 10  2  0
 10 11  1  0
 12 11  1  6
 12 13  1  0
 12 19  1  0
 13 14  1  0
 14 15  1  6
 14 17  1  0
 15 16  1  0
 17 18  1  1
 17 19  1  0
 19 20  1  1
M  END
