
     RDKit          3D

 25 26  0  0  0  0  0  0  0  0999 V2000
    6.1260    1.9760   -0.4830 C   0  0  0  0  0  0  0  0  0  0  0  0
    6.9670    0.8380   -0.1380 C   0  0  0  0  0  0  0  0  0  0  0  0
    6.5550   -0.2970    0.3500 C   0  0  0  0  0  0  0  0  0  0  0  0
    7.4260   -1.4810    0.7110 C   0  0  0  0  0  0  0  0  0  0  0  0
    6.6430   -1.9710    1.8170 O   0  0  0  0  0  0  0  0  0  0  0  0
    5.3180   -1.7260    1.5430 N   0  0  0  0  0  0  0  0  0  0  0  0
    5.2220   -0.7390    0.6750 C   0  0  0  0  0  0  0  0  0  0  0  0
    3.9740   -0.2110    0.1400 C   0  0  0  0  0  0  0  0  0  0  0  0
    2.8260   -0.7470    0.5430 C   0  0  0  0  0  0  0  0  0  0  0  0
    1.5580   -0.2130    0.0030 C   0  0  0  0  0  0  0  0  0  0  0  0
    1.5650    0.7320   -0.8190 O   0  0  0  0  0  0  0  0  0  0  0  0
    0.3360   -0.7730    0.4160 N   0  0  0  0  0  0  0  0  0  0  0  0
   -0.9620   -0.3910    0.0100 C   0  0  0  0  0  0  0  0  0  0  0  0
   -1.2780    0.7300   -0.6950 C   0  0  0  0  0  0  0  0  0  0  0  0
   -2.6050    1.0190   -1.0720 C   0  0  0  0  0  0  0  0  0  0  0  0
   -3.6320    0.1720   -0.7360 C   0  0  0  0  0  0  0  0  0  0  0  0
   -4.9190    0.4480   -1.0990 O   0  0  0  0  0  0  0  0  0  0  0  0
   -5.3580    1.5580   -1.8170 C   0  0  0  0  0  0  0  0  0  0  0  0
   -5.0640    2.8780   -1.1480 C   0  0  0  0  0  0  0  0  0  0  0  0
   -3.3330   -0.9750   -0.0180 C   0  0  0  0  0  0  0  0  0  0  0  0
   -4.3950   -1.9350    0.3800 C   0  0  0  0  0  0  0  0  0  0  0  0
   -5.1480   -1.3670    1.5320 C   0  0  0  0  0  0  0  0  0  0  0  0
   -6.2080   -2.1600    2.0530 N   0  0  0  0  0  0  0  0  0  0  0  0
   -4.8880   -0.2630    2.0330 O   0  0  0  0  0  0  0  0  0  0  0  0
   -2.0310   -1.2370    0.3390 C   0  0  0  0  0  0  0  0  0  0  0  0
  1  2  1  0
  2  3  2  3
  3  4  1  0
  3  7  1  0
  4  5  1  0
  5  6  1  0
  6  7  2  0
  7  8  1  0
  8  9  2  3
  9 10  1  0
 10 11  2  0
 10 12  1  0
 12 13  1  0
 13 14  2  0
 13 25  1  0
 14 15  1  0
 15 16  2  0
 16 17  1  0
 16 20  1  0
 17 18  1  0
 18 19  1  0
 20 21  1  0
 20 25  2  0
 21 22  1  0
 22 23  1  0
 22 24  2  0
M  END
