
     RDKit          3D

 25 26  0  0  0  0  0  0  0  0999 V2000
   -5.8570    0.4360    0.0690 C   0  0  0  0  0  0  0  0  0  0  0  0
   -5.0870   -0.7620   -0.4340 C   0  0  0  0  0  0  0  0  0  0  0  0
   -3.7090   -0.5620   -0.3600 O   0  0  0  0  0  0  0  0  0  0  0  0
   -3.1050   -1.7090   -0.8410 C   0  0  0  0  0  0  0  0  0  0  0  0
   -1.6040   -1.5890   -0.8020 C   0  0  0  0  0  0  0  0  0  0  0  0
   -1.0000   -2.5990   -1.2250 O   0  0  0  0  0  0  0  0  0  0  0  0
   -0.9850   -0.4220   -0.3220 N   0  0  0  0  0  0  0  0  0  0  0  0
    0.4080   -0.2350   -0.2480 C   0  0  0  0  0  0  0  0  0  0  0  0
    1.2990   -1.2540   -0.4700 C   0  0  0  0  0  0  0  0  0  0  0  0
    2.6860   -1.0630   -0.3390 C   0  0  0  0  0  0  0  0  0  0  0  0
    3.5520   -2.1520   -0.6000 N   0  0  0  0  0  0  0  0  0  0  0  0
    4.9080   -2.2570   -0.2430 C   0  0  0  0  0  0  0  0  0  0  0  0
    5.4770   -1.3350    0.3800 O   0  0  0  0  0  0  0  0  0  0  0  0
    5.6410   -3.4430   -0.6060 N   0  0  0  0  0  0  0  0  0  0  0  0
    7.0340   -3.5380   -0.2340 C   0  0  0  0  0  0  0  0  0  0  0  0
    3.1420    0.1730    0.0170 C   0  0  0  0  0  0  0  0  0  0  0  0
    2.2240    1.2050    0.2400 C   0  0  0  0  0  0  0  0  0  0  0  0
    0.8670    1.0340    0.1160 C   0  0  0  0  0  0  0  0  0  0  0  0
   -0.0680    2.1220    0.3090 C   0  0  0  0  0  0  0  0  0  0  0  0
   -0.9430    2.4370   -0.7030 C   0  0  0  0  0  0  0  0  0  0  0  0
   -1.8620    3.4630   -0.5820 C   0  0  0  0  0  0  0  0  0  0  0  0
   -1.9250    4.2090    0.5750 C   0  0  0  0  0  0  0  0  0  0  0  0
   -2.8480    5.2570    0.7250 O   0  0  0  0  0  0  0  0  0  0  0  0
   -1.0650    3.9120    1.5890 C   0  0  0  0  0  0  0  0  0  0  0  0
   -0.1410    2.8760    1.4610 C   0  0  0  0  0  0  0  0  0  0  0  0
  1  2  1  0
  2  3  1  0
  3  4  1  0
  4  5  1  0
  5  6  2  0
  5  7  1  0
  7  8  1  0
  8  9  2  0
  8 18  1  0
  9 10  1  0
 10 11  1  0
 10 16  2  0
 11 12  1  0
 12 13  2  0
 12 14  1  0
 14 15  1  0
 16 17  1  0
 17 18  2  0
 18 19  1  0
 19 20  2  0
 19 25  1  0
 20 21  1  0
 21 22  2  0
 22 23  1  0
 22 24  1  0
 24 25  2  0
M  END
