
     RDKit          3D

 25 25  0  0  0  0  0  0  0  0999 V2000
   -3.0920    0.8380    2.6680 C   0  0  0  0  0  0  0  0  0  0  0  0
   -2.8580   -0.1250    1.7530 C   0  0  0  0  0  0  0  0  0  0  0  0
   -2.0890   -1.2100    2.0850 O   0  0  0  0  0  0  0  0  0  0  0  0
   -1.9000   -2.4220    1.4500 C   0  0  0  0  0  0  0  0  0  0  0  0
   -0.4640   -2.7370    1.1150 C   0  0  0  0  0  0  0  0  0  0  0  0
    0.3810   -1.8270    1.7860 O   0  0  0  0  0  0  0  0  0  0  0  0
    1.4820   -1.2210    1.2550 C   0  0  0  0  0  0  0  0  0  0  0  0
    2.6290   -1.4710    1.7660 O   0  0  0  0  0  0  0  0  0  0  0  0
    1.5020   -0.2730    0.1170 C   0  0  2  0  0  0  0  0  0  0  0  0
    2.6630    0.5360    0.1330 O   0  0  0  0  0  0  0  0  0  0  0  0
    3.6440    0.5590   -0.8350 C   0  0  0  0  0  0  0  0  0  0  0  0
    3.5130   -0.1980   -1.8240 O   0  0  0  0  0  0  0  0  0  0  0  0
    4.8140    1.4550   -0.6970 C   0  0  0  0  0  0  0  0  0  0  0  0
    4.8780    2.3100    0.5010 C   0  0  0  0  0  0  0  0  0  0  0  0
    5.8830    3.0610    0.5850 O   0  0  0  0  0  0  0  0  0  0  0  0
    5.7320    1.4530   -1.6260 C   0  0  0  0  0  0  0  0  0  0  0  0
    5.6900    0.6370   -2.7840 N   0  0  0  0  0  0  0  0  0  0  0  0
    0.2490    0.6390    0.1270 C   0  0  0  0  0  0  0  0  0  0  0  0
   -0.4810    0.3620   -1.0820 N   0  0  0  0  0  0  0  0  0  0  0  0
   -1.5930   -0.4620   -1.2930 C   0  0  0  0  0  0  0  0  0  0  0  0
   -1.3610   -1.4340   -2.1360 O   0  0  0  0  0  0  0  0  0  0  0  0
   -2.9050   -0.4730   -0.8020 N   0  0  0  0  0  0  0  0  0  0  0  0
   -3.4320    0.0110    0.4210 C   0  0  0  0  0  0  0  0  0  0  0  0
   -4.6020    0.6560    0.3420 C   0  0  0  0  0  0  0  0  0  0  0  0
   -5.3340    0.8880   -0.9370 C   0  0  0  0  0  0  0  0  0  0  0  0
  1  2  2  0
  2  3  1  0
  2 23  1  0
  3  4  1  0
  4  5  1  0
  5  6  1  0
  6  7  1  0
  7  8  2  0
  7  9  1  0
  9 10  1  1
  9 18  1  0
 10 11  1  0
 11 12  2  0
 11 13  1  0
 13 14  1  0
 13 16  2  3
 14 15  2  0
 16 17  1  0
 18 19  1  0
 19 20  1  0
 20 21  2  0
 20 22  1  0
 22 23  1  0
 23 24  2  3
 24 25  1  0
M  END
