
     RDKit          3D

 25 25  0  0  0  0  0  0  0  0999 V2000
   -2.3570   -2.5270    1.7320 C   0  0  0  0  0  0  0  0  0  0  0  0
   -2.0560   -1.9520    0.5820 C   0  0  0  0  0  0  0  0  0  0  0  0
   -2.8950   -2.2770   -0.5570 C   0  0  0  0  0  0  0  0  0  0  0  0
   -3.8760   -3.0910   -0.4120 N   0  0  0  0  0  0  0  0  0  0  0  0
   -0.9060   -1.0180    0.4670 C   0  0  2  0  0  0  0  0  0  0  0  0
   -1.2730    0.3950    0.3000 C   0  0  0  0  0  0  0  0  0  0  0  0
   -2.7430    0.7500    0.2810 C   0  0  1  0  0  0  0  0  0  0  0  0
   -3.3560    0.6370    1.5010 O   0  0  0  0  0  0  0  0  0  0  0  0
   -2.7010    2.2310   -0.1870 C   0  0  0  0  0  0  0  0  0  0  0  0
   -1.8410    2.9880    0.5860 O   0  0  0  0  0  0  0  0  0  0  0  0
   -0.8480    3.8710    0.3080 C   0  0  0  0  0  0  0  0  0  0  0  0
   -1.0070    5.1390    0.1770 O   0  0  0  0  0  0  0  0  0  0  0  0
    0.5470    3.4020    0.1350 C   0  0  0  0  0  0  0  0  0  0  0  0
    0.7760    2.8090   -1.1650 N   0  0  0  0  0  0  0  0  0  0  0  0
    1.6170    1.7070   -1.4290 C   0  0  0  0  0  0  0  0  0  0  0  0
    2.3660    1.7300   -2.4270 O   0  0  0  0  0  0  0  0  0  0  0  0
    1.6740    0.4740   -0.5630 C   0  0  2  0  0  0  0  0  0  0  0  0
    3.1410    0.0570   -0.5560 C   0  0  0  0  0  0  0  0  0  0  0  0
    3.3960   -1.1450    0.2650 C   0  0  0  0  0  0  0  0  0  0  0  0
    2.4470   -1.6780    0.8810 O   0  0  0  0  0  0  0  0  0  0  0  0
    4.6540   -1.7020    0.3730 O   0  0  0  0  0  0  0  0  0  0  0  0
    4.9340   -2.8510    1.1490 C   0  0  0  0  0  0  0  0  0  0  0  0
    0.9570   -0.6130   -1.1720 N   0  0  0  0  0  0  0  0  0  0  0  0
    0.0860   -1.4980   -0.5320 C   0  0  0  0  0  0  0  0  0  0  0  0
    0.0870   -2.7490   -0.7610 O   0  0  0  0  0  0  0  0  0  0  0  0
  1  2  2  0
  2  3  1  0
  5  2  1  6
  3  4  2  0
  5  6  1  0
  5 24  1  0
  6  7  1  0
  7  8  1  1
  7  9  1  0
  9 10  1  0
 10 11  1  0
 11 12  2  0
 11 13  1  0
 13 14  1  0
 14 15  1  0
 15 16  2  0
 15 17  1  0
 17 18  1  6
 17 23  1  0
 18 19  1  0
 19 20  2  0
 19 21  1  0
 21 22  1  0
 23 24  1  0
 24 25  2  0
M  END
