
     RDKit          3D

 25 25  0  0  0  0  0  0  0  0999 V2000
   -3.4360   -2.3070   -1.7460 C   0  0  0  0  0  0  0  0  0  0  0  0
   -1.9680   -2.4470   -1.8270 C   0  0  0  0  0  0  0  0  0  0  0  0
   -1.2080   -1.7970   -0.9700 C   0  0  0  0  0  0  0  0  0  0  0  0
   -1.8780   -0.9480    0.0430 C   0  0  0  0  0  0  0  0  0  0  0  0
   -1.5240    0.5200   -0.1250 C   0  0  1  0  0  0  0  0  0  0  0  0
   -0.5010    0.5720   -1.0420 O   0  0  0  0  0  0  0  0  0  0  0  0
   -2.7590    1.2030   -0.6300 C   0  0  0  0  0  0  0  0  0  0  0  0
   -3.9540    1.2840    0.1310 N   0  0  0  0  0  0  0  0  0  0  0  0
   -2.7750    1.7360   -1.7660 O   0  0  0  0  0  0  0  0  0  0  0  0
   -1.2130    1.1020    1.2010 C   0  0  0  0  0  0  0  0  0  0  0  0
   -0.5790    2.3790    1.2310 N   0  0  0  0  0  0  0  0  0  0  0  0
   -0.0210    3.1590    0.2120 C   0  0  0  0  0  0  0  0  0  0  0  0
   -0.4850    4.3740    0.1530 O   0  0  0  0  0  0  0  0  0  0  0  0
    0.9680    2.7800   -0.7370 N   0  0  0  0  0  0  0  0  0  0  0  0
    2.2350    2.2140   -0.5070 C   0  0  0  0  0  0  0  0  0  0  0  0
    3.0330    1.9040   -1.4380 O   0  0  0  0  0  0  0  0  0  0  0  0
    2.7950    1.9110    0.8380 C   0  0  2  0  0  0  0  0  0  0  0  0
    4.3010    1.6930    0.7960 C   0  0  0  0  0  0  0  0  0  0  0  0
    2.1220    0.8900    1.4610 O   0  0  0  0  0  0  0  0  0  0  0  0
    2.2930   -0.4370    1.5090 C   0  0  0  0  0  0  0  0  0  0  0  0
    2.5370   -1.1480    2.5470 O   0  0  0  0  0  0  0  0  0  0  0  0
    2.1980   -1.2370    0.2460 C   0  0  0  0  0  0  0  0  0  0  0  0
    0.9640   -2.0700    0.1910 C   0  0  2  0  0  0  0  0  0  0  0  0
    1.3880   -3.5240    0.1610 C   0  0  0  0  0  0  0  0  0  0  0  0
    0.1700   -1.8480   -0.9460 O   0  0  0  0  0  0  0  0  0  0  0  0
  1  2  1  0
  2  3  2  3
  3  4  1  0
  3 25  1  0
  4  5  1  0
  5  6  1  6
  5  7  1  0
  5 10  1  0
  7  8  1  0
  7  9  2  0
 10 11  1  0
 11 12  1  0
 12 13  2  0
 12 14  1  0
 14 15  1  0
 15 16  2  0
 15 17  1  0
 17 18  1  6
 17 19  1  0
 19 20  1  0
 20 21  2  0
 20 22  1  0
 22 23  1  0
 23 24  1  6
 23 25  1  0
M  END
