
     RDKit          3D

 25 26  0  0  0  0  0  0  0  0999 V2000
   -6.1790    3.0520   -0.3470 C   0  0  0  0  0  0  0  0  0  0  0  0
   -4.7390    2.8080    0.0600 C   0  0  0  0  0  0  0  0  0  0  0  0
   -4.3260    1.6170   -0.5750 O   0  0  0  0  0  0  0  0  0  0  0  0
   -3.0530    1.0790   -0.4320 C   0  0  0  0  0  0  0  0  0  0  0  0
   -2.2490    1.7070    0.3080 O   0  0  0  0  0  0  0  0  0  0  0  0
   -2.6780   -0.1160   -1.0830 N   0  0  0  0  0  0  0  0  0  0  0  0
   -1.3390   -0.6490   -0.9100 C   0  0  0  0  0  0  0  0  0  0  0  0
   -0.9800   -1.7630   -1.5130 C   0  0  0  0  0  0  0  0  0  0  0  0
   -1.9300   -2.3930   -2.3040 O   0  0  0  0  0  0  0  0  0  0  0  0
   -2.7470   -3.3930   -1.7280 C   0  0  0  0  0  0  0  0  0  0  0  0
    0.3290   -2.3300   -1.3900 C   0  0  2  0  0  0  0  0  0  0  0  0
    0.5070   -3.6730   -0.7740 C   0  0  0  0  0  0  0  0  0  0  0  0
    2.0110   -3.6980   -0.5500 C   0  0  0  0  0  0  0  0  0  0  0  0
    2.7210   -4.7060   -0.4200 O   0  0  0  0  0  0  0  0  0  0  0  0
    2.4320   -2.3270   -0.5210 N   0  0  0  0  0  0  0  0  0  0  0  0
    1.2280   -1.5240   -0.4630 C   0  0  0  0  0  0  0  0  0  0  0  0
    0.8810   -0.4370    0.1300 C   0  0  0  0  0  0  0  0  0  0  0  0
    1.7510    0.3160    1.0090 C   0  0  0  0  0  0  0  0  0  0  0  0
    1.2670    1.4350    1.4440 O   0  0  0  0  0  0  0  0  0  0  0  0
    3.0160    0.0190    1.4590 N   0  0  0  0  0  0  0  0  0  0  0  0
    3.9490    0.7100    2.2710 C   0  0  0  0  0  0  0  0  0  0  0  0
    4.5480    1.9270    1.6930 C   0  0  1  0  0  0  0  0  0  0  0  0
    3.6000    3.0490    1.4320 C   0  0  0  0  0  0  0  0  0  0  0  0
    5.5270    2.4580    2.6060 O   0  0  0  0  0  0  0  0  0  0  0  0
   -0.4420    0.0190   -0.1000 O   0  0  0  0  0  0  0  0  0  0  0  0
  1  2  1  0
  2  3  1  0
  3  4  1  0
  4  5  2  0
  4  6  1  0
  6  7  1  0
  7  8  2  0
  7 25  1  0
  8  9  1  0
  8 11  1  0
  9 10  1  0
 11 12  1  1
 11 16  1  0
 12 13  1  0
 13 14  2  0
 13 15  1  0
 15 16  1  0
 16 17  2  0
 17 18  1  0
 17 25  1  0
 18 19  2  0
 18 20  1  0
 20 21  1  0
 21 22  1  0
 22 23  1  1
 22 24  1  0
M  END
