
     RDKit          3D

 19 20  0  0  0  0  0  0  0  0999 V2000
    4.7060    0.7000   -0.4850 C   0  0  0  0  0  0  0  0  0  0  0  0
    3.2060    0.4430   -0.5560 C   0  0  0  0  0  0  0  0  0  0  0  0
    2.6320    0.1680    0.8090 C   0  0  2  0  0  0  0  0  0  0  0  0
    3.2930   -1.0600    1.4390 C   0  0  0  0  0  0  0  0  0  0  0  0
    1.1790   -0.2040    0.6460 C   0  0  2  0  0  0  0  0  0  0  0  0
    1.1480   -1.3490   -0.1660 O   0  0  0  0  0  0  0  0  0  0  0  0
    0.3560    0.9120    0.0840 C   0  0  0  0  0  0  0  0  0  0  0  0
   -1.0400    0.5520   -0.0560 N   0  0  0  0  0  0  0  0  0  0  0  0
   -1.6300    0.0120   -1.1310 C   0  0  0  0  0  0  0  0  0  0  0  0
   -1.1500   -0.3020   -2.2420 O   0  0  0  0  0  0  0  0  0  0  0  0
   -2.9640   -0.1570   -0.7910 C   0  0  0  0  0  0  0  0  0  0  0  0
   -3.9900   -0.6570   -1.5050 N   0  0  0  0  0  0  0  0  0  0  0  0
   -5.2050   -0.7260   -0.9710 N   0  0  0  0  0  0  0  0  0  0  0  0
   -5.4250   -0.3020    0.2760 C   0  0  0  0  0  0  0  0  0  0  0  0
   -6.5720   -0.3720    0.7670 O   0  0  0  0  0  0  0  0  0  0  0  0
   -4.3970    0.1960    0.9830 N   0  0  0  0  0  0  0  0  0  0  0  0
   -3.1650    0.2630    0.4350 C   0  0  0  0  0  0  0  0  0  0  0  0
   -1.9650    0.7150    0.9200 C   0  0  0  0  0  0  0  0  0  0  0  0
   -1.8180    1.1870    2.0760 O   0  0  0  0  0  0  0  0  0  0  0  0
  1  2  1  0
  2  3  1  0
  3  4  1  6
  3  5  1  0
  5  6  1  6
  5  7  1  0
  7  8  1  0
  8  9  1  0
  8 18  1  0
  9 10  2  0
  9 11  1  0
 11 12  1  0
 11 17  2  0
 12 13  1  0
 13 14  1  0
 14 15  2  0
 14 16  1  0
 16 17  1  0
 17 18  1  0
 18 19  2  0
M  END
