
     RDKit          3D

 19 20  0  0  0  0  0  0  0  0999 V2000
    5.2790    1.1660    0.6580 N   0  0  0  0  0  0  0  0  0  0  0  0
    3.9240    1.2590    0.1800 C   0  0  0  0  0  0  0  0  0  0  0  0
    3.6110    2.1120   -0.6950 O   0  0  0  0  0  0  0  0  0  0  0  0
    2.9170    0.3980    0.6800 N   0  0  0  0  0  0  0  0  0  0  0  0
    1.5910    0.4480    0.2510 N   0  0  0  0  0  0  0  0  0  0  0  0
    0.6200   -0.4240    0.7990 C   0  0  0  0  0  0  0  0  0  0  0  0
    1.0090   -1.2340    1.6780 O   0  0  0  0  0  0  0  0  0  0  0  0
   -0.8090   -0.4640    0.4260 C   0  0  1  0  0  0  0  0  0  0  0  0
   -1.1890    0.4650   -0.5350 O   0  0  0  0  0  0  0  0  0  0  0  0
   -1.0560    1.8280   -0.3270 C   0  0  0  0  0  0  0  0  0  0  0  0
   -1.0670    2.3770    0.8800 C   0  0  0  0  0  0  0  0  0  0  0  0
   -0.9040    3.8330    0.7290 C   0  0  0  0  0  0  0  0  0  0  0  0
   -0.8010    4.0390   -0.6920 N   0  0  0  0  0  0  0  0  0  0  0  0
   -0.8870    2.9040   -1.2860 C   0  0  0  0  0  0  0  0  0  0  0  0
   -1.1400   -1.8840    0.0460 C   0  0  1  0  0  0  0  0  0  0  0  0
   -2.6270   -2.0260   -0.3100 C   0  0  0  0  0  0  0  0  0  0  0  0
   -2.5820   -3.4480   -0.8890 C   0  0  0  0  0  0  0  0  0  0  0  0
   -1.1970   -3.4820   -1.4520 C   0  0  0  0  0  0  0  0  0  0  0  0
   -0.5430   -2.3090   -1.1140 O   0  0  0  0  0  0  0  0  0  0  0  0
  1  2  1  0
  2  3  2  0
  2  4  1  0
  4  5  1  0
  5  6  1  0
  6  7  2  0
  6  8  1  0
  8  9  1  6
  8 15  1  0
  9 10  1  0
 10 11  2  0
 10 14  1  0
 11 12  1  0
 12 13  1  0
 13 14  2  0
 15 16  1  6
 15 19  1  0
 16 17  1  0
 17 18  1  0
 18 19  1  0
M  END
