
     RDKit          3D

 11 11  0  0  0  0  0  0  0  0999 V2000
   -1.1930   -1.6830   -0.0420 N   0  0  0  0  0  0  0  0  0  0  0  0
   -0.7250   -0.4750    0.6100 C   0  0  2  0  0  0  0  0  0  0  0  0
   -1.6750    0.6580    0.4500 C   0  0  1  0  0  0  0  0  0  0  0  0
   -1.5070    1.5400    1.5240 O   0  0  0  0  0  0  0  0  0  0  0  0
   -1.5630    1.3420   -0.7450 O   0  0  0  0  0  0  0  0  0  0  0  0
   -0.2740    1.7620   -1.0190 C   0  0  0  0  0  0  0  0  0  0  0  0
    0.5560    0.5030   -1.1960 C   0  0  0  0  0  0  0  0  0  0  0  0
    0.6740   -0.1210    0.1530 C   0  0  1  0  0  0  0  0  0  0  0  0
    1.1590    0.8300    1.0700 O   0  0  0  0  0  0  0  0  0  0  0  0
    1.5670   -1.3290    0.1860 C   0  0  0  0  0  0  0  0  0  0  0  0
    2.8670   -0.9690   -0.1620 O   0  0  0  0  0  0  0  0  0  0  0  0
  2  1  1  6
  2  3  1  0
  2  8  1  0
  3  4  1  1
  3  5  1  0
  5  6  1  0
  6  7  1  0
  7  8  1  0
  8  9  1  1
  8 10  1  0
 10 11  1  0
M  CHG  1   1   1
M  END
