
     RDKit          3D

 19 20  0  0  0  0  0  0  0  0999 V2000
   -3.2650    2.9020   -0.2640 N   0  0  0  0  0  0  0  0  0  0  0  0
   -2.1980    2.0500    0.0740 C   0  0  0  0  0  0  0  0  0  0  0  0
   -1.0840    2.5780    0.3150 O   0  0  0  0  0  0  0  0  0  0  0  0
   -2.3150    0.6090    0.1590 C   0  0  0  0  0  0  0  0  0  0  0  0
   -1.2080   -0.0660    0.4940 C   0  0  0  0  0  0  0  0  0  0  0  0
   -0.1220    0.7480    0.7050 O   0  0  0  0  0  0  0  0  0  0  0  0
    1.2260    0.4020    0.7150 C   0  0  1  0  0  0  0  0  0  0  0  0
    1.5920   -0.1870   -0.6330 C   0  0  0  0  0  0  0  0  0  0  0  0
    2.7080   -1.1770   -0.5560 C   0  0  0  0  0  0  0  0  0  0  0  0
    3.9210   -0.6850    0.1660 C   0  0  0  0  0  0  0  0  0  0  0  0
    3.5990   -0.0080    1.3370 O   0  0  0  0  0  0  0  0  0  0  0  0
    3.4960    1.3560    1.0620 C   0  0  0  0  0  0  0  0  0  0  0  0
    2.0340    1.6980    0.8680 C   0  0  0  0  0  0  0  0  0  0  0  0
   -1.0350   -1.5010    0.6520 C   0  0  0  0  0  0  0  0  0  0  0  0
   -0.0190   -1.8900    1.2420 O   0  0  0  0  0  0  0  0  0  0  0  0
   -1.9700   -2.4670    0.1660 N   0  0  0  0  0  0  0  0  0  0  0  0
   -3.3020   -2.3470   -0.3500 C   0  0  0  0  0  0  0  0  0  0  0  0
   -4.0470   -1.2440    0.1920 N   0  0  0  0  0  0  0  0  0  0  0  0
   -3.5810    0.0080   -0.1150 N   0  0  0  0  0  0  0  0  0  0  0  0
  1  2  1  0
  2  3  2  0
  2  4  1  0
  4  5  2  0
  4 19  1  0
  5  6  1  0
  5 14  1  0
  7  6  1  6
  7  8  1  0
  7 13  1  0
  8  9  1  0
  9 10  1  0
 10 11  1  0
 11 12  1  0
 12 13  1  0
 14 15  2  0
 14 16  1  0
 16 17  1  0
 17 18  1  0
 18 19  1  0
M  END
