
     RDKit          3D

 19 20  0  0  0  0  0  0  0  0999 V2000
    5.3510    2.0450   -0.7970 N   0  0  0  0  0  0  0  0  0  0  0  0
    3.9710    1.9190   -0.4750 C   0  0  0  0  0  0  0  0  0  0  0  0
    3.3030    2.8630   -0.0220 O   0  0  0  0  0  0  0  0  0  0  0  0
    3.3150    0.6460   -0.6800 N   0  0  0  0  0  0  0  0  0  0  0  0
    1.9310    0.4780   -0.3690 C   0  0  0  0  0  0  0  0  0  0  0  0
    1.3690    1.5030    0.0800 O   0  0  0  0  0  0  0  0  0  0  0  0
    1.1970   -0.7610   -0.5440 C   0  0  0  0  0  0  0  0  0  0  0  0
    1.8390   -1.8450   -1.0320 C   0  0  0  0  0  0  0  0  0  0  0  0
    1.1870   -3.0900   -1.2310 N   0  0  0  0  0  0  0  0  0  0  0  0
   -0.1810   -3.2790   -0.9290 C   0  0  0  0  0  0  0  0  0  0  0  0
   -0.7310   -4.4020   -1.1190 O   0  0  0  0  0  0  0  0  0  0  0  0
   -0.9100   -2.1740   -0.4120 N   0  0  0  0  0  0  0  0  0  0  0  0
   -0.2190   -0.9130   -0.2190 C   0  0  0  0  0  0  0  0  0  0  0  0
   -0.9300    0.0640    0.2620 C   0  0  0  0  0  0  0  0  0  0  0  0
   -2.3570    0.0220    0.6210 C   0  0  2  0  0  0  0  0  0  0  0  0
   -3.1060    1.2180    0.0140 C   0  0  0  0  0  0  0  0  0  0  0  0
   -4.0700    1.5220    1.1430 C   0  0  0  0  0  0  0  0  0  0  0  0
   -3.1500    1.5510    2.2160 O   0  0  0  0  0  0  0  0  0  0  0  0
   -2.5150    0.3340    2.1000 C   0  0  0  0  0  0  0  0  0  0  0  0
  1  2  1  0
  2  3  2  0
  2  4  1  0
  4  5  1  0
  5  6  2  0
  5  7  1  0
  7  8  2  0
  7 13  1  0
  8  9  1  0
  9 10  1  0
 10 11  2  0
 10 12  1  0
 12 13  1  0
 13 14  2  3
 15 14  1  6
 15 16  1  0
 15 19  1  0
 16 17  1  0
 17 18  1  0
 18 19  1  0
M  END
