
     RDKit          3D

  7  6  0  0  0  0  0  0  0  0999 V2000
   -1.6320    0.6750   -1.0070 C   0  0  0  0  0  0  0  0  0  0  0  0
   -1.4070   -0.0500    0.0620 C   0  0  0  0  0  0  0  0  0  0  0  0
   -2.3960   -1.1350    0.3970 C   0  0  0  0  0  0  0  0  0  0  0  0
   -0.2660    0.0980    0.9330 C   0  0  0  0  0  0  0  0  0  0  0  0
    0.8390    0.9950    0.5470 C   0  0  0  0  0  0  0  0  0  0  0  0
    1.6060    0.6560   -0.6810 C   0  0  0  0  0  0  0  0  0  0  0  0
    2.2600   -0.7310   -0.5360 C   0  0  0  0  0  0  0  0  0  0  0  0
  1  2  2  0
  2  3  1  0
  2  4  1  0
  4  5  1  0
  5  6  1  0
  6  7  1  0
M  END
