
     RDKit          3D

  7  7  0  0  0  0  0  0  0  0999 V2000
   -1.9570    0.6080    0.4000 C   0  0  0  0  0  0  0  0  0  0  0  0
   -0.9400    0.1400   -0.6500 C   0  0  1  0  0  0  0  0  0  0  0  0
    0.1820    1.1360   -0.7880 C   0  0  0  0  0  0  0  0  0  0  0  0
    1.0580    1.0340    0.4160 C   0  0  0  0  0  0  0  0  0  0  0  0
    1.6290   -0.3200    0.6170 C   0  0  0  0  0  0  0  0  0  0  0  0
    0.9050   -1.4530    0.0140 C   0  0  0  0  0  0  0  0  0  0  0  0
   -0.4980   -1.2540   -0.3990 C   0  0  0  0  0  0  0  0  0  0  0  0
  2  1  1  1
  2  3  1  0
  2  7  1  0
  3  4  1  0
  4  5  1  0
  5  6  1  0
  6  7  1  0
M  END
