
     RDKit          3D

  7  6  0  0  0  0  0  0  0  0999 V2000
    2.5660    1.0360   -0.0150 C   0  0  0  0  0  0  0  0  0  0  0  0
    1.7500    0.4340   -0.8550 C   0  0  0  0  0  0  0  0  0  0  0  0
    1.2680   -0.9230   -0.5400 C   0  0  0  0  0  0  0  0  0  0  0  0
   -0.2050   -1.0750   -0.4170 C   0  0  0  0  0  0  0  0  0  0  0  0
   -0.8720   -0.2620    0.6380 C   0  0  1  0  0  0  0  0  0  0  0  0
   -0.7120    1.2250    0.4880 C   0  0  0  0  0  0  0  0  0  0  0  0
   -2.3780   -0.5390    0.5070 C   0  0  0  0  0  0  0  0  0  0  0  0
  1  2  2  0
  2  3  1  0
  3  4  1  0
  4  5  1  0
  5  6  1  6
  5  7  1  0
M  END
