
     RDKit          3D

  7  7  0  0  0  0  0  0  0  0999 V2000
    2.6650    0.6440    0.1860 C   0  0  0  0  0  0  0  0  0  0  0  0
    1.9160   -0.1850    1.1860 C   0  0  0  0  0  0  0  0  0  0  0  0
    0.7420   -0.9130    0.5650 C   0  0  0  0  0  0  0  0  0  0  0  0
   -0.1870    0.1190   -0.0070 C   0  0  0  0  0  0  0  0  0  0  0  0
   -1.4050   -0.4750   -0.6600 C   0  0  2  0  0  0  0  0  0  0  0  0
   -2.3390    0.6020   -1.2370 C   0  0  0  0  0  0  0  0  0  0  0  0
   -2.7630   -0.2780   -0.1120 C   0  0  0  0  0  0  0  0  0  0  0  0
  1  2  1  0
  2  3  1  0
  3  4  1  0
  5  4  1  1
  5  6  1  0
  5  7  1  0
  6  7  1  0
M  END
