
     RDKit          3D

  7  7  0  0  0  0  0  0  0  0999 V2000
   -1.3080    1.2530   -0.6350 C   0  0  0  0  0  0  0  0  0  0  0  0
   -0.7440    0.0940    0.1430 C   0  0  2  0  0  0  0  0  0  0  0  0
   -1.6080   -1.1580    0.0690 C   0  0  0  0  0  0  0  0  0  0  0  0
   -0.0020    0.2750    1.3960 C   0  0  0  0  0  0  0  0  0  0  0  0
    0.7420   -0.0260    0.1070 C   0  0  1  0  0  0  0  0  0  0  0  0
    1.2780   -1.4000   -0.1380 C   0  0  0  0  0  0  0  0  0  0  0  0
    1.5780    1.1040   -0.3950 C   0  0  0  0  0  0  0  0  0  0  0  0
  2  1  1  6
  2  3  1  0
  2  4  1  0
  2  5  1  0
  4  5  1  0
  5  6  1  1
  5  7  1  0
M  END
