
     RDKit          3D

 16 16  0  0  0  0  0  0  0  0999 V2000
    2.2730   -0.8240   -1.7700 N   0  0  0  0  0  0  0  0  0  0  0  0
    1.9180   -0.0190   -0.8190 C   0  0  0  0  0  0  0  0  0  0  0  0
    0.8290    0.9610   -0.9810 C   0  0  0  0  0  0  0  0  0  0  0  0
   -0.2520    0.7290    0.0650 C   0  0  0  0  0  0  0  0  0  0  0  0
   -1.5260    1.9780   -0.2280 S   0  0  0  0  0  0  0  0  0  0  0  0
   -2.8730    1.8490    0.9450 C   0  0  0  0  0  0  0  0  0  0  0  0
   -3.6530    0.5370    0.7630 C   0  0  0  0  0  0  0  0  0  0  0  0
   -4.7820    0.5490   -0.1720 C   0  0  0  0  0  0  0  0  0  0  0  0
   -5.3320   -1.1210   -0.0320 S   0  0  0  0  0  0  0  0  0  0  0  0
   -4.0530   -1.6700    1.2180 C   0  0  0  0  0  0  0  0  0  0  0  0
   -3.4370   -0.5660    1.3330 N   0  0  0  0  0  0  0  0  0  0  0  0
    2.6480   -0.1330    0.3990 N   0  0  0  0  0  0  0  0  0  0  0  0
    4.2610   -0.6320    0.5120 S   0  0  1  0  0  0  0  0  0  0  0  0
    4.5040   -2.2950    0.6580 N   0  0  0  0  0  0  0  0  0  0  0  0
    5.0210   -0.1190   -0.6800 O   0  0  0  0  0  0  0  0  0  0  0  0
    4.8870    0.0380    1.7270 O   0  0  0  0  0  0  0  0  0  0  0  0
  1  2  2  0
  2  3  1  0
  2 12  1  0
  3  4  1  0
  4  5  1  0
  5  6  1  0
  6  7  1  0
  7  8  2  0
  7 11  1  0
  8  9  1  0
  9 10  1  0
 10 11  2  0
 12 13  1  0
 13 14  1  1
 13 15  2  0
 13 16  2  0
M  END
