
     RDKit          3D

 16 16  0  0  0  0  0  0  0  0999 V2000
    1.1720   -1.9340    0.8870 N   0  0  0  0  0  0  0  0  0  0  0  0
    0.9190   -1.3060   -0.3860 C   0  0  0  0  0  0  0  0  0  0  0  0
   -0.4490   -1.3490   -0.9010 C   0  0  0  0  0  0  0  0  0  0  0  0
   -1.3950   -0.7140   -0.0300 N   0  0  0  0  0  0  0  0  0  0  0  0
   -2.7260   -0.7450   -0.5110 C   0  0  0  0  0  0  0  0  0  0  0  0
   -3.6750   -0.0180    0.3720 C   0  0  0  0  0  0  0  0  0  0  0  0
   -3.2790    1.4240    0.4460 C   0  0  0  0  0  0  0  0  0  0  0  0
   -1.8140    1.6700    0.4370 C   0  0  0  0  0  0  0  0  0  0  0  0
   -0.9540    0.4780    0.5870 C   0  0  0  0  0  0  0  0  0  0  0  0
    1.8800   -0.7340   -1.0280 N   0  0  0  0  0  0  0  0  0  0  0  0
    3.1710   -0.7160   -0.5030 N   0  0  0  0  0  0  0  0  0  0  0  0
    3.6180    0.0330    0.9670 S   0  0  1  0  0  0  0  0  0  0  0  0
    2.3360    0.3510    1.6570 O   0  0  0  0  0  0  0  0  0  0  0  0
    4.3920   -0.8450    1.8920 O   0  0  0  0  0  0  0  0  0  0  0  0
    4.2080    2.0050    0.8880 S   0  0  0  0  0  0  0  0  0  0  0  0
    5.9340    2.2850   -0.0050 S   0  0  0  0  0  0  0  0  0  0  0  0
  1  2  1  0
  2  3  1  0
  2 10  2  3
  3  4  1  0
  4  5  1  0
  4  9  1  0
  5  6  1  0
  6  7  1  0
  7  8  1  0
  8  9  1  0
 10 11  1  0
 12 11  1  6
 12 13  2  0
 12 14  2  0
 12 15  1  0
 15 16  1  0
M  END
