
     RDKit          3D

 16 16  0  0  0  0  0  0  0  0999 V2000
    5.7330    1.0720    1.3640 N   0  0  0  0  0  0  0  0  0  0  0  0
    4.3470    0.8270    1.2570 C   0  0  0  0  0  0  0  0  0  0  0  0
    3.5850    1.5420    1.9930 O   0  0  0  0  0  0  0  0  0  0  0  0
    3.8460   -0.1600    0.3760 N   0  0  0  0  0  0  0  0  0  0  0  0
    2.4660   -0.3660    0.3030 N   0  0  0  0  0  0  0  0  0  0  0  0
    1.6140    0.7070    0.0250 C   0  0  0  0  0  0  0  0  0  0  0  0
    2.0940    1.8540   -0.1580 O   0  0  0  0  0  0  0  0  0  0  0  0
    0.1140    0.5930   -0.0750 C   0  0  0  0  0  0  0  0  0  0  0  0
   -0.4400   -1.0700    0.1990 S   0  0  0  0  0  0  0  0  0  0  0  0
   -2.2310   -1.2920    0.0280 C   0  0  0  0  0  0  0  0  0  0  0  0
   -3.0370   -0.3540   -0.3350 C   0  0  0  0  0  0  0  0  0  0  0  0
   -2.7040    1.0250   -0.6730 N   0  0  0  0  0  0  0  0  0  0  0  0
   -2.7740    1.5460   -2.3310 S   0  0  0  0  0  0  0  0  0  0  0  0
   -4.4990   -0.7180   -0.4260 C   0  0  0  0  0  0  0  0  0  0  0  0
   -4.5170   -2.1460    0.7160 S   0  0  0  0  0  0  0  0  0  0  0  0
   -2.7880   -2.6370    0.3110 C   0  0  0  0  0  0  0  0  0  0  0  0
  1  2  1  0
  2  3  2  0
  2  4  1  0
  4  5  1  0
  5  6  1  0
  6  7  2  0
  6  8  1  0
  8  9  1  0
  9 10  1  0
 10 11  2  0
 10 16  1  0
 11 12  1  0
 11 14  1  0
 12 13  1  0
 14 15  1  0
 15 16  1  0
M  END
