
     RDKit          3D

 16 16  0  0  0  0  0  0  0  0999 V2000
   -1.2170    3.8620    0.3360 N   0  0  0  0  0  0  0  0  0  0  0  0
   -0.5800    2.9570    0.7230 C   0  0  0  0  0  0  0  0  0  0  0  0
    0.1810    1.8650    1.1730 N   0  0  0  0  0  0  0  0  0  0  0  0
    0.2050    0.6960    0.6320 C   0  0  0  0  0  0  0  0  0  0  0  0
    1.3350   -0.4700    1.4880 S   0  0  0  0  0  0  0  0  0  0  0  0
    2.3510   -1.3770    0.3330 C   0  0  0  0  0  0  0  0  0  0  0  0
    3.4000   -0.4560   -0.2010 C   0  0  0  0  0  0  0  0  0  0  0  0
    4.5620   -0.2470    0.6160 N   0  0  0  0  0  0  0  0  0  0  0  0
    3.3000    0.1220   -1.3070 O   0  0  0  0  0  0  0  0  0  0  0  0
   -0.6380    0.1490   -0.3830 C   0  0  0  0  0  0  0  0  0  0  0  0
   -0.2770   -1.1010   -1.0250 N   0  0  0  0  0  0  0  0  0  0  0  0
   -1.8880    0.4800   -0.5810 C   0  0  0  0  0  0  0  0  0  0  0  0
   -3.2260    0.1190   -1.6560 S   0  0  0  0  0  0  0  0  0  0  0  0
   -4.5810   -0.0990   -0.4390 C   0  0  0  0  0  0  0  0  0  0  0  0
   -4.1260    0.1350    0.8190 O   0  0  0  0  0  0  0  0  0  0  0  0
   -2.8400    1.3020    0.7810 S   0  0  0  0  0  0  0  0  0  0  0  0
  1  2  3  0
  2  3  1  0
  3  4  2  3
  4  5  1  0
  4 10  1  0
  5  6  1  0
  6  7  1  0
  7  8  1  0
  7  9  2  0
 10 11  1  0
 10 12  2  3
 12 13  1  0
 12 16  1  0
 13 14  1  0
 14 15  1  0
 15 16  1  0
M  END
