
     RDKit          3D

 26 27  0  0  0  0  0  0  0  0999 V2000
    8.2530    0.1690    1.0020 N   0  0  0  0  0  0  0  0  0  0  0  0
    7.8740   -0.2650   -0.2800 C   0  0  0  0  0  0  0  0  0  0  0  0
    8.7460   -0.3890   -1.1670 O   0  0  0  0  0  0  0  0  0  0  0  0
    6.5240   -0.5670   -0.5970 C   0  0  0  0  0  0  0  0  0  0  0  0
    5.8480   -0.9860   -1.6680 C   0  0  0  0  0  0  0  0  0  0  0  0
    4.5200   -1.1770   -1.6180 C   0  0  0  0  0  0  0  0  0  0  0  0
    3.8590   -0.9390   -0.4540 C   0  0  0  0  0  0  0  0  0  0  0  0
    2.4470   -1.0400   -0.0490 C   0  0  0  0  0  0  0  0  0  0  0  0
    1.6920    0.2520   -0.2810 C   0  0  0  0  0  0  0  0  0  0  0  0
    0.2670    0.0940    0.1480 C   0  0  0  0  0  0  0  0  0  0  0  0
   -0.0900   -1.0020    0.6070 O   0  0  0  0  0  0  0  0  0  0  0  0
   -0.6140    1.1730    0.0200 N   0  0  0  0  0  0  0  0  0  0  0  0
   -1.9810    1.1390    0.3840 C   0  0  0  0  0  0  0  0  0  0  0  0
   -2.8690    0.1910   -0.3260 C   0  0  2  0  0  0  0  0  0  0  0  0
   -2.4880   -1.1250   -0.1790 O   0  0  0  0  0  0  0  0  0  0  0  0
   -2.9580    0.4800   -1.8190 C   0  0  0  0  0  0  0  0  0  0  0  0
   -4.5390   -0.3120   -2.2450 S   0  0  0  0  0  0  0  0  0  0  0  0
   -5.1240   -0.5770   -0.5370 C   0  0  0  0  0  0  0  0  0  0  0  0
   -6.0430   -1.3940   -0.1330 C   0  0  0  0  0  0  0  0  0  0  0  0
   -6.7040   -2.1820   -1.0280 F   0  0  0  0  0  0  0  0  0  0  0  0
   -6.3800   -1.5600    1.1540 F   0  0  0  0  0  0  0  0  0  0  0  0
   -4.2820    0.3590    0.2060 C   0  0  0  0  0  0  0  0  0  0  0  0
   -4.6690    1.1630    1.1780 C   0  0  0  0  0  0  0  0  0  0  0  0
   -6.0110    1.3630    1.7150 C   0  0  0  0  0  0  0  0  0  0  0  0
   -6.1240    1.0140    3.0460 F   0  0  0  0  0  0  0  0  0  0  0  0
    5.1490   -0.4150    0.6520 S   0  0  0  0  0  0  0  0  0  0  0  0
  1  2  1  0
  2  3  2  0
  2  4  1  0
  4  5  2  0
  4 26  1  0
  5  6  1  0
  6  7  2  0
  7  8  1  0
  7 26  1  0
  8  9  1  0
  9 10  1  0
 10 11  2  0
 10 12  1  0
 12 13  1  0
 13 14  1  0
 14 15  1  6
 14 16  1  0
 14 22  1  0
 16 17  1  0
 17 18  1  0
 18 19  2  3
 18 22  1  0
 19 20  1  0
 19 21  1  0
 22 23  2  3
 23 24  1  0
 24 25  1  0
M  END
