
     RDKit          3D

 25 26  0  0  0  0  0  0  0  0999 V2000
   -5.9780    0.6940    1.1070 N   0  0  0  0  0  0  0  0  0  0  0  0
   -5.9810   -0.6500    0.6970 C   0  0  0  0  0  0  0  0  0  0  0  0
   -6.9180   -1.3840    1.1990 O   0  0  0  0  0  0  0  0  0  0  0  0
   -5.0570   -1.2720   -0.2120 C   0  0  0  0  0  0  0  0  0  0  0  0
   -4.0530   -0.7190   -0.8270 C   0  0  0  0  0  0  0  0  0  0  0  0
   -3.6250    0.6650   -0.7420 C   0  0  0  0  0  0  0  0  0  0  0  0
   -2.2010    0.8370   -0.2030 C   0  0  0  0  0  0  0  0  0  0  0  0
   -1.2620    0.1190   -1.1080 C   0  0  1  0  0  0  0  0  0  0  0  0
   -1.2990    0.6460   -2.5440 C   0  0  0  0  0  0  0  0  0  0  0  0
   -0.8600    1.9550   -2.6110 O   0  0  0  0  0  0  0  0  0  0  0  0
    0.1140    0.1670   -0.6100 N   0  0  0  0  0  0  0  0  0  0  0  0
    0.8670   -0.9690   -0.2500 C   0  0  0  0  0  0  0  0  0  0  0  0
    0.3210   -2.0950   -0.3640 O   0  0  0  0  0  0  0  0  0  0  0  0
    2.2460   -0.8770    0.2450 C   0  0  0  0  0  0  0  0  0  0  0  0
    3.0520    0.2120    0.4560 C   0  0  0  0  0  0  0  0  0  0  0  0
    4.3000   -0.0040    0.9280 C   0  0  0  0  0  0  0  0  0  0  0  0
    4.7290   -1.2250    1.1740 C   0  0  0  0  0  0  0  0  0  0  0  0
    3.2340   -2.2210    0.7070 S   0  0  0  0  0  0  0  0  0  0  0  0
    5.9650   -1.7880    1.5950 C   0  0  0  0  0  0  0  0  0  0  0  0
    7.0430   -1.0790    1.8370 C   0  0  0  0  0  0  0  0  0  0  0  0
    6.9590    0.6630    1.6250 S   0  0  0  0  0  0  0  0  0  0  0  0
    5.2670    1.1000    1.2580 C   0  0  0  0  0  0  0  0  0  0  0  0
    4.9630    2.3550    1.3190 C   0  0  0  0  0  0  0  0  0  0  0  0
    5.9310    3.2960    1.6310 F   0  0  0  0  0  0  0  0  0  0  0  0
    3.7100    2.7950    1.0950 F   0  0  0  0  0  0  0  0  0  0  0  0
  1  2  1  0
  2  3  2  0
  2  4  1  0
  4  5  2  3
  5  6  1  0
  6  7  1  0
  8  7  1  1
  8  9  1  0
  8 11  1  0
  9 10  1  0
 11 12  1  0
 12 13  2  0
 12 14  1  0
 14 15  2  0
 14 18  1  0
 15 16  1  0
 16 17  2  0
 16 22  1  0
 17 18  1  0
 17 19  1  0
 19 20  2  0
 20 21  1  0
 21 22  1  0
 22 23  2  3
 23 24  1  0
 23 25  1  0
M  END
