
     RDKit          3D

 26 26  0  0  0  0  0  0  0  0999 V2000
    8.4450    1.6100    0.6510 N   0  0  0  0  0  0  0  0  0  0  0  0
    7.0750    1.3660    0.4090 C   0  0  0  0  0  0  0  0  0  0  0  0
    6.0880    2.6270    0.1010 S   0  0  0  0  0  0  0  0  0  0  0  0
    6.5940    0.0430    0.4390 N   0  0  0  0  0  0  0  0  0  0  0  0
    5.1900   -0.1810    0.1880 C   0  0  0  0  0  0  0  0  0  0  0  0
    4.4240    0.7710   -0.0490 O   0  0  0  0  0  0  0  0  0  0  0  0
    4.7360   -1.5640    0.2300 C   0  0  0  0  0  0  0  0  0  0  0  0
    3.2670   -1.7780    0.0110 C   0  0  0  0  0  0  0  0  0  0  0  0
    2.3760   -1.1220    1.0110 C   0  0  0  0  0  0  0  0  0  0  0  0
    1.0350   -1.4180    0.6920 O   0  0  0  0  0  0  0  0  0  0  0  0
    0.3630   -1.0870   -0.4430 C   0  0  0  0  0  0  0  0  0  0  0  0
    0.9540   -0.4400   -1.3420 O   0  0  0  0  0  0  0  0  0  0  0  0
   -1.0780   -1.4610   -0.6850 C   0  0  0  0  0  0  0  0  0  0  0  0
   -1.8900   -0.2350   -0.3350 C   0  0  0  0  0  0  0  0  0  0  0  0
   -3.3510   -0.4690   -0.5270 C   0  0  0  0  0  0  0  0  0  0  0  0
   -3.8130   -1.6020   -0.9580 C   0  0  0  0  0  0  0  0  0  0  0  0
   -5.2350   -1.7710   -1.1230 C   0  0  0  0  0  0  0  0  0  0  0  0
   -6.1000   -0.8300   -0.8550 C   0  0  0  0  0  0  0  0  0  0  0  0
   -7.4470   -1.1070   -1.0550 F   0  0  0  0  0  0  0  0  0  0  0  0
   -5.7000    0.4880   -0.3380 C   0  0  2  0  0  0  0  0  0  0  0  0
   -6.3420    0.7120    0.8910 F   0  0  0  0  0  0  0  0  0  0  0  0
   -6.1370    1.4050   -1.2970 F   0  0  0  0  0  0  0  0  0  0  0  0
   -4.2520    0.6460   -0.2070 C   0  0  0  0  0  0  0  0  0  0  0  0
   -3.7460    1.7980    0.2100 C   0  0  0  0  0  0  0  0  0  0  0  0
   -4.3410    3.0590    0.5960 C   0  0  0  0  0  0  0  0  0  0  0  0
   -6.0870    3.2850    0.5590 S   0  0  0  0  0  0  0  0  0  0  0  0
  1  2  1  0
  2  3  2  0
  2  4  1  0
  4  5  1  0
  5  6  2  0
  5  7  1  0
  7  8  1  0
  8  9  1  0
  9 10  1  0
 10 11  1  0
 11 12  2  0
 11 13  1  0
 13 14  1  0
 14 15  1  0
 15 16  2  0
 15 23  1  0
 16 17  1  0
 17 18  2  0
 18 19  1  0
 18 20  1  0
 20 21  1  1
 20 22  1  0
 20 23  1  0
 23 24  2  3
 24 25  1  0
 25 26  1  0
M  END
