
     RDKit          3D

 26 27  0  0  0  0  0  0  0  0999 V2000
   -0.8710    5.2320   -0.8870 N   0  0  0  0  0  0  0  0  0  0  0  0
    0.0640    4.1910   -0.8790 C   0  0  0  0  0  0  0  0  0  0  0  0
    1.2280    4.3530   -1.2880 O   0  0  0  0  0  0  0  0  0  0  0  0
   -0.3270    2.8440   -0.3700 C   0  0  0  0  0  0  0  0  0  0  0  0
   -0.9560    1.8120   -1.7020 S   0  0  0  0  0  0  0  0  0  0  0  0
   -1.3550    0.1910   -1.0480 C   0  0  0  0  0  0  0  0  0  0  0  0
   -2.6430   -0.1560   -1.0620 C   0  0  0  0  0  0  0  0  0  0  0  0
   -3.0960   -1.4200   -0.5770 C   0  0  0  0  0  0  0  0  0  0  0  0
   -2.4930   -2.5940   -0.9680 C   0  0  0  0  0  0  0  0  0  0  0  0
   -2.9280   -3.8090   -0.4920 C   0  0  0  0  0  0  0  0  0  0  0  0
   -2.3150   -4.9500   -0.8950 F   0  0  0  0  0  0  0  0  0  0  0  0
   -3.9910   -3.8650    0.3970 C   0  0  0  0  0  0  0  0  0  0  0  0
   -4.5830   -2.6830    0.7770 C   0  0  0  0  0  0  0  0  0  0  0  0
   -4.1640   -1.4560    0.3120 C   0  0  0  0  0  0  0  0  0  0  0  0
   -4.7480   -0.2700    0.6860 O   0  0  0  0  0  0  0  0  0  0  0  0
   -0.3830   -0.6070   -0.3620 C   0  0  0  0  0  0  0  0  0  0  0  0
    0.8910   -0.5170   -0.2610 C   0  0  0  0  0  0  0  0  0  0  0  0
    1.9270   -1.6760    0.7030 S   0  0  0  0  0  0  0  0  0  0  0  0
    3.2250   -0.4140    1.0330 C   0  0  1  0  0  0  0  0  0  0  0  0
    4.5750   -1.0440    1.1830 C   0  0  0  0  0  0  0  0  0  0  0  0
    5.5580    0.0850    1.4480 C   0  0  1  0  0  0  0  0  0  0  0  0
    5.2280    0.7750    2.5940 F   0  0  0  0  0  0  0  0  0  0  0  0
    6.8060   -0.5000    1.6320 F   0  0  0  0  0  0  0  0  0  0  0  0
    3.0940    0.4090   -0.1410 N   0  0  0  0  0  0  0  0  0  0  0  0
    1.8910    0.3290   -0.8400 C   0  0  0  0  0  0  0  0  0  0  0  0
    1.7060    0.9780   -1.9350 O   0  0  0  0  0  0  0  0  0  0  0  0
  1  2  1  0
  2  3  2  0
  2  4  1  0
  4  5  1  0
  5  6  1  0
  6  7  2  3
  6 16  1  0
  7  8  1  0
  8  9  2  0
  8 14  1  0
  9 10  1  0
 10 11  1  0
 10 12  2  0
 12 13  1  0
 13 14  2  0
 14 15  1  0
 16 17  2  3
 17 18  1  0
 17 25  1  0
 18 19  1  0
 19 20  1  6
 19 24  1  0
 20 21  1  0
 21 22  1  1
 21 23  1  0
 24 25  1  0
 25 26  2  0
M  END
