
     RDKit          3D

 25 26  0  0  0  0  0  0  0  0999 V2000
    5.8350    2.0740    0.9990 C   0  0  0  0  0  0  0  0  0  0  0  0
    4.7060    1.2330    0.5350 C   0  0  0  0  0  0  0  0  0  0  0  0
    3.0420    1.8050    0.1280 S   0  0  0  0  0  0  0  0  0  0  0  0
    2.4080    0.2500   -0.2980 C   0  0  0  0  0  0  0  0  0  0  0  0
    1.0110   -0.0130   -0.7530 C   0  0  0  0  0  0  0  0  0  0  0  0
    0.8640   -0.7450   -2.1610 S   0  0  0  0  0  0  0  0  0  0  0  0
   -0.0440    0.3530    0.0590 N   0  0  0  0  0  0  0  0  0  0  0  0
   -1.4040    0.1660   -0.2760 C   0  0  0  0  0  0  0  0  0  0  0  0
   -1.8910    0.1730   -1.5580 C   0  0  0  0  0  0  0  0  0  0  0  0
   -3.2160   -0.0440   -1.8570 C   0  0  0  0  0  0  0  0  0  0  0  0
   -4.1000   -0.2810   -0.7960 C   0  0  0  0  0  0  0  0  0  0  0  0
   -5.4250   -0.5000   -1.1170 O   0  0  0  0  0  0  0  0  0  0  0  0
   -6.3030    0.5720   -1.3100 C   0  0  1  0  0  0  0  0  0  0  0  0
   -5.8450    1.3690   -2.3700 F   0  0  0  0  0  0  0  0  0  0  0  0
   -7.5190    0.0540   -1.7560 F   0  0  0  0  0  0  0  0  0  0  0  0
   -6.4920    1.3650   -0.2140 F   0  0  0  0  0  0  0  0  0  0  0  0
   -3.6270   -0.2910    0.4920 C   0  0  0  0  0  0  0  0  0  0  0  0
   -4.5180   -0.5780    1.6570 C   0  0  0  0  0  0  0  0  0  0  0  0
   -3.7680   -0.5440    2.8490 O   0  0  0  0  0  0  0  0  0  0  0  0
   -2.3120   -0.0740    0.7560 C   0  0  0  0  0  0  0  0  0  0  0  0
    3.4190   -0.5840   -0.1250 C   0  0  0  0  0  0  0  0  0  0  0  0
    4.6190   -0.1340    0.3010 C   0  0  0  0  0  0  0  0  0  0  0  0
    5.8310   -0.9630    0.5340 C   0  0  0  0  0  0  0  0  0  0  0  0
    5.8040   -2.3610    0.3130 N   0  0  0  0  0  0  0  0  0  0  0  0
    6.8890   -0.4460    0.9280 O   0  0  0  0  0  0  0  0  0  0  0  0
  1  2  1  0
  2  3  1  0
  2 22  2  0
  3  4  1  0
  4  5  1  0
  4 21  2  0
  5  6  2  0
  5  7  1  0
  7  8  1  0
  8  9  2  0
  8 20  1  0
  9 10  1  0
 10 11  2  0
 11 12  1  0
 11 17  1  0
 12 13  1  0
 13 14  1  6
 13 15  1  0
 13 16  1  0
 17 18  1  0
 17 20  2  0
 18 19  1  0
 21 22  1  0
 22 23  1  0
 23 24  1  0
 23 25  2  0
M  END
