
     RDKit          3D

 20 20  0  0  0  0  0  0  0  0999 V2000
   -4.7380   -0.7440    1.3170 N   0  0  0  0  0  0  0  0  0  0  0  0
   -3.6210   -0.5540    0.7090 C   0  0  0  0  0  0  0  0  0  0  0  0
   -2.3720   -1.0990    1.2500 C   0  0  0  0  0  0  0  0  0  0  0  0
   -1.3420   -0.0270    1.5720 C   0  0  0  0  0  0  0  0  0  0  0  0
    0.1180   -0.8890    2.2250 S   0  0  0  0  0  0  0  0  0  0  0  0
    0.8330   -1.8860    0.8970 C   0  0  0  0  0  0  0  0  0  0  0  0
    1.3710   -0.9580   -0.1700 C   0  0  0  0  0  0  0  0  0  0  0  0
    0.6550   -0.5170   -1.2110 C   0  0  0  0  0  0  0  0  0  0  0  0
    1.7780    0.5370   -2.1390 S   0  0  0  0  0  0  0  0  0  0  0  0
    3.1710    0.1890   -0.8630 C   0  0  0  0  0  0  0  0  0  0  0  0
    4.4360    0.8620   -1.1520 N   0  0  0  0  0  0  0  0  0  0  0  0
    5.4820    0.6090   -0.2360 C   0  0  0  0  0  0  0  0  0  0  0  0
    6.4760    1.5890   -0.0410 N   0  0  0  0  0  0  0  0  0  0  0  0
    5.5090   -0.5070    0.4000 N   0  0  0  0  0  0  0  0  0  0  0  0
    2.6200   -0.4960   -0.1600 N   0  0  0  0  0  0  0  0  0  0  0  0
   -3.6540    0.2000   -0.4950 N   0  0  0  0  0  0  0  0  0  0  0  0
   -5.1560    0.7720   -1.1090 S   0  0  2  0  0  0  0  0  0  0  0  0
   -5.5550    2.3390   -0.5060 N   0  0  0  0  0  0  0  0  0  0  0  0
   -6.2340   -0.1740   -0.6170 O   0  0  0  0  0  0  0  0  0  0  0  0
   -5.1870    0.8020   -2.6080 O   0  0  0  0  0  0  0  0  0  0  0  0
  1  2  2  0
  2  3  1  0
  2 16  1  0
  3  4  1  0
  4  5  1  0
  5  6  1  0
  6  7  1  0
  7  8  2  0
  7 15  1  0
  8  9  1  0
  9 10  1  0
 10 11  1  0
 10 15  2  0
 11 12  1  0
 12 13  1  0
 12 14  2  0
 16 17  1  0
 17 18  1  1
 17 19  2  0
 17 20  2  0
M  CHG  1  14   1
M  END
