
     RDKit          3D

 12 12  0  0  0  0  0  0  0  0999 V2000
    3.8610   -0.5210   -2.4650 O   0  0  0  0  0  0  0  0  0  0  0  0
    3.9880   -1.1170   -1.2040 C   0  0  0  0  0  0  0  0  0  0  0  0
    2.7780   -0.8400   -0.3390 C   0  0  0  0  0  0  0  0  0  0  0  0
    2.6040    0.6500   -0.1370 C   0  0  0  0  0  0  0  0  0  0  0  0
    1.4180    0.9650    0.7150 C   0  0  0  0  0  0  0  0  0  0  0  0
    0.1450    0.4440    0.0870 C   0  0  0  0  0  0  0  0  0  0  0  0
   -0.9320    0.7460    0.8870 O   0  0  0  0  0  0  0  0  0  0  0  0
   -2.1410    0.3540    0.4750 C   0  0  1  0  0  0  0  0  0  0  0  0
   -2.8580   -0.6130    1.4260 C   0  0  0  0  0  0  0  0  0  0  0  0
   -4.2080   -0.5840    0.7380 C   0  0  0  0  0  0  0  0  0  0  0  0
   -4.3680    0.6420    0.1610 O   0  0  0  0  0  0  0  0  0  0  0  0
   -3.2100    1.3900    0.3580 C   0  0  0  0  0  0  0  0  0  0  0  0
  1  2  1  0
  2  3  1  0
  3  4  1  0
  4  5  1  0
  5  6  1  0
  6  7  1  0
  8  7  1  1
  8  9  1  0
  8 12  1  0
  9 10  1  0
 10 11  1  0
 11 12  1  0
M  END
