
     RDKit          3D

 13 13  0  0  0  0  0  0  0  0999 V2000
   -2.5060    2.2180    1.3370 O   0  0  0  0  0  0  0  0  0  0  0  0
   -3.4770    1.4720    0.6640 C   0  0  0  0  0  0  0  0  0  0  0  0
   -2.7570    0.4850   -0.2510 C   0  0  0  0  0  0  0  0  0  0  0  0
   -1.9540   -0.3490    0.5200 O   0  0  0  0  0  0  0  0  0  0  0  0
   -1.3050   -1.2370   -0.2890 C   0  0  2  0  0  0  0  0  0  0  0  0
   -1.7180   -2.6810    0.0120 C   0  0  0  0  0  0  0  0  0  0  0  0
   -1.0380   -3.5440   -0.8290 O   0  0  0  0  0  0  0  0  0  0  0  0
    0.1940   -1.1890   -0.1790 C   0  0  0  0  0  0  0  0  0  0  0  0
    0.7220    0.0500   -0.5080 O   0  0  0  0  0  0  0  0  0  0  0  0
    2.0950   -0.0350   -0.3690 C   0  0  0  0  0  0  0  0  0  0  0  0
    2.8020    1.2560   -0.6990 C   0  0  2  0  0  0  0  0  0  0  0  0
    4.3090    1.1730   -0.5480 C   0  0  0  0  0  0  0  0  0  0  0  0
    3.5060    2.0240    0.3760 C   0  0  0  0  0  0  0  0  0  0  0  0
  1  2  1  0
  2  3  1  0
  3  4  1  0
  4  5  1  0
  5  6  1  1
  5  8  1  0
  6  7  1  0
  8  9  1  0
  9 10  1  0
 11 10  1  1
 11 12  1  0
 11 13  1  0
 12 13  1  0
M  END
