
     RDKit          3D

 38 41  0  0  0  0  0  0  0  0999 V2000
   -7.0860    1.8640   -3.1680 C   0  0  0  0  0  0  0  0  0  0  0  0
   -6.9870    1.7830   -1.6620 C   0  0  1  0  0  0  0  0  0  0  0  0
   -8.0370    0.8650   -1.1370 C   0  0  0  0  0  0  0  0  0  0  0  0
   -5.6080    1.4450   -1.3130 C   0  0  0  0  0  0  0  0  0  0  0  0
   -4.6140    2.3320   -1.7260 O   0  0  0  0  0  0  0  0  0  0  0  0
   -5.2640    0.3420   -0.6290 C   0  0  0  0  0  0  0  0  0  0  0  0
   -3.9450    0.0720   -0.3260 C   0  0  0  0  0  0  0  0  0  0  0  0
   -3.5420   -1.0560    0.3790 C   0  0  0  0  0  0  0  0  0  0  0  0
   -2.2040   -1.3090    0.6830 N   0  0  0  0  0  0  0  0  0  0  0  0
   -1.0620   -0.5280    0.3070 C   0  0  0  0  0  0  0  0  0  0  0  0
   -1.2260    0.4860   -0.3590 O   0  0  0  0  0  0  0  0  0  0  0  0
    0.2500   -0.8930    0.6820 N   0  0  0  0  0  0  0  0  0  0  0  0
    1.4420   -0.1950    0.3590 C   0  0  0  0  0  0  0  0  0  0  0  0
    1.5520    0.8540   -0.5080 C   0  0  0  0  0  0  0  0  0  0  0  0
    2.7840    1.4860   -0.7500 C   0  0  0  0  0  0  0  0  0  0  0  0
    3.9520    1.1010   -0.1400 C   0  0  0  0  0  0  0  0  0  0  0  0
    5.1910    1.7640   -0.3650 N   0  0  0  0  0  0  0  0  0  0  0  0
    5.4720    2.5310   -1.5830 C   0  0  0  0  0  0  0  0  0  0  0  0
    6.4750    1.7710   -2.4340 C   0  0  0  0  0  0  0  0  0  0  0  0
    7.9870    1.6070   -1.4820 S   0  0  0  0  0  0  0  0  0  0  0  0
    8.9620    0.6200   -2.1040 O   0  0  0  0  0  0  0  0  0  0  0  0
    7.4830    1.0000    0.1600 C   0  0  1  0  0  0  0  0  0  0  0  0
    8.6390    1.3520    1.0930 C   0  0  0  0  0  0  0  0  0  0  0  0
    6.2880    1.7770    0.6010 C   0  0  0  0  0  0  0  0  0  0  0  0
    3.8420    0.0240    0.7510 C   0  0  0  0  0  0  0  0  0  0  0  0
    4.9750   -0.3970    1.3790 O   0  0  0  0  0  0  0  0  0  0  0  0
    5.1620   -1.4130    2.2870 C   0  0  1  0  0  0  0  0  0  0  0  0
    6.0650   -2.3670    1.8370 F   0  0  0  0  0  0  0  0  0  0  0  0
    5.6360   -0.8750    3.4880 F   0  0  0  0  0  0  0  0  0  0  0  0
    2.6350   -0.5910    0.9840 C   0  0  0  0  0  0  0  0  0  0  0  0
   -4.5040   -1.9530    0.8010 C   0  0  0  0  0  0  0  0  0  0  0  0
   -4.2690   -3.0750    1.4780 C   0  0  0  0  0  0  0  0  0  0  0  0
   -5.3750   -4.0210    1.9150 C   0  0  0  0  0  0  0  0  0  0  0  0
   -4.7300   -5.0080    2.6060 O   0  0  0  0  0  0  0  0  0  0  0  0
   -3.5300   -4.4800    3.0580 C   0  0  0  0  0  0  0  0  0  0  0  0
   -3.1450   -3.6880    1.9510 O   0  0  0  0  0  0  0  0  0  0  0  0
   -5.8300   -1.6420    0.4750 C   0  0  0  0  0  0  0  0  0  0  0  0
   -6.1690   -0.5420   -0.2080 N   0  0  0  0  0  0  0  0  0  0  0  0
  2  1  1  6
  2  3  1  0
  2  4  1  0
  4  5  1  0
  4  6  2  3
  6  7  1  0
  6 38  1  0
  7  8  2  0
  8  9  1  0
  8 31  1  0
  9 10  1  0
 10 11  2  0
 10 12  1  0
 12 13  1  0
 13 14  2  0
 13 30  1  0
 14 15  1  0
 15 16  2  0
 16 17  1  0
 16 25  1  0
 17 18  1  0
 17 24  1  0
 18 19  1  0
 20 19  1  6
 20 21  2  0
 20 22  1  0
 22 23  1  1
 22 24  1  0
 25 26  1  0
 25 30  2  0
 26 27  1  0
 27 28  1  6
 27 29  1  0
 31 32  2  3
 31 37  1  0
 32 33  1  0
 32 36  1  0
 33 34  1  0
 34 35  1  0
 35 36  1  0
 37 38  2  0
M  END
