
     RDKit          3D

 38 41  0  0  0  0  0  0  0  0999 V2000
   -2.2960   -1.4030   -3.5990 O   0  0  0  0  0  0  0  0  0  0  0  0
   -1.7750   -1.2490   -2.4080 C   0  0  0  0  0  0  0  0  0  0  0  0
   -0.8580   -0.1740   -2.3120 N   0  0  0  0  0  0  0  0  0  0  0  0
   -0.4240    0.5150   -1.1160 C   0  0  0  0  0  0  0  0  0  0  0  0
    0.9200    0.6060   -0.8350 C   0  0  0  0  0  0  0  0  0  0  0  0
    1.4560    1.2000    0.2690 C   0  0  0  0  0  0  0  0  0  0  0  0
    2.8190    1.3220    0.5960 N   0  0  0  0  0  0  0  0  0  0  0  0
    3.9340    0.9190   -0.1690 C   0  0  0  0  0  0  0  0  0  0  0  0
    3.7440    0.3840   -1.2810 O   0  0  0  0  0  0  0  0  0  0  0  0
    5.3190    1.0930    0.2690 C   0  0  1  0  0  0  0  0  0  0  0  0
    5.6420    0.6400    1.6520 C   0  0  0  0  0  0  0  0  0  0  0  0
    7.1790    0.6680    1.6060 C   0  0  0  0  0  0  0  0  0  0  0  0
    7.5310    0.9690    0.1480 C   0  0  0  0  0  0  0  0  0  0  0  0
    6.3170    0.4970   -0.5870 N   0  0  0  0  0  0  0  0  0  0  0  0
    6.3980   -0.9420   -0.4890 C   0  0  0  0  0  0  0  0  0  0  0  0
    5.3670   -1.6700   -1.1430 N   0  0  0  0  0  0  0  0  0  0  0  0
    5.6110   -3.1060   -0.9260 C   0  0  1  0  0  0  0  0  0  0  0  0
    4.6200   -3.8480   -1.5530 F   0  0  0  0  0  0  0  0  0  0  0  0
    6.8160   -3.5000   -1.4290 F   0  0  0  0  0  0  0  0  0  0  0  0
    0.5230    1.7500    1.1660 C   0  0  0  0  0  0  0  0  0  0  0  0
   -0.8240    1.6730    0.9050 C   0  0  0  0  0  0  0  0  0  0  0  0
   -1.3270    1.0620   -0.2300 C   0  0  0  0  0  0  0  0  0  0  0  0
   -2.6750    1.0150   -0.4520 O   0  0  0  0  0  0  0  0  0  0  0  0
   -3.6430    1.3350   -1.2760 C   0  0  0  0  0  0  0  0  0  0  0  0
   -4.9000    1.0840   -0.8160 C   0  0  0  0  0  0  0  0  0  0  0  0
   -5.1800    0.5140    0.4540 N   0  0  0  0  0  0  0  0  0  0  0  0
   -6.2010    1.0820    1.3380 C   0  0  0  0  0  0  0  0  0  0  0  0
   -7.5550    0.4470    1.0620 C   0  0  0  0  0  0  0  0  0  0  0  0
   -8.4590    0.9410    0.2280 C   0  0  0  0  0  0  0  0  0  0  0  0
   -9.6380    0.3470    0.0170 C   0  0  0  0  0  0  0  0  0  0  0  0
   -9.5620   -1.1290    1.1020 S   0  0  0  0  0  0  0  0  0  0  0  0
   -7.8990   -0.7590    1.7320 C   0  0  0  0  0  0  0  0  0  0  0  0
   -4.4760   -0.6590    0.9170 C   0  0  0  0  0  0  0  0  0  0  0  0
   -4.0400   -0.6720    2.0980 O   0  0  0  0  0  0  0  0  0  0  0  0
   -4.2350   -1.8540    0.0840 C   0  0  0  0  0  0  0  0  0  0  0  0
   -2.9130   -1.9890   -0.2390 O   0  0  0  0  0  0  0  0  0  0  0  0
   -2.1930   -2.1770   -1.3680 C   0  0  0  0  0  0  0  0  0  0  0  0
   -1.8050   -3.4040   -1.5590 O   0  0  0  0  0  0  0  0  0  0  0  0
  1  2  2  0
  2  3  1  0
  2 37  1  0
  3  4  1  0
  4  5  2  0
  4 22  1  0
  5  6  1  0
  6  7  1  0
  6 20  2  0
  7  8  1  0
  8  9  2  0
 10  8  1  6
 10 11  1  0
 10 14  1  0
 11 12  1  0
 12 13  1  0
 13 14  1  0
 14 15  1  0
 15 16  1  0
 16 17  1  0
 17 18  1  6
 17 19  1  0
 20 21  1  0
 21 22  2  0
 22 23  1  0
 23 24  1  0
 24 25  2  0
 25 26  1  0
 26 27  1  0
 26 33  1  0
 27 28  1  0
 28 29  1  0
 28 32  2  0
 29 30  2  0
 30 31  1  0
 31 32  1  0
 33 34  2  0
 33 35  1  0
 35 36  1  0
 36 37  1  0
 37 38  2  0
M  END
