
     RDKit          3D

 38 41  0  0  0  0  0  0  0  0999 V2000
    0.3080   -1.9290    2.2440 C   0  0  0  0  0  0  0  0  0  0  0  0
    1.7530   -1.5620    2.0940 C   0  0  0  0  0  0  0  0  0  0  0  0
    2.6480   -1.6420    3.0450 O   0  0  0  0  0  0  0  0  0  0  0  0
    3.8030   -1.2550    2.6090 N   0  0  0  0  0  0  0  0  0  0  0  0
    3.7370   -0.8870    1.3080 C   0  0  0  0  0  0  0  0  0  0  0  0
    4.7940   -0.3970    0.4450 C   0  0  0  0  0  0  0  0  0  0  0  0
    4.5220   -0.0940   -0.7470 O   0  0  0  0  0  0  0  0  0  0  0  0
    6.1500   -0.2460    0.9210 N   0  0  0  0  0  0  0  0  0  0  0  0
    6.5350   -0.6730    2.2490 C   0  0  0  0  0  0  0  0  0  0  0  0
    8.2970   -1.1390    1.8970 S   0  0  0  0  0  0  0  0  0  0  0  0
    8.4530   -0.0650    0.4890 C   0  0  0  0  0  0  0  0  0  0  0  0
    9.5610    0.3800   -0.1810 C   0  0  0  0  0  0  0  0  0  0  0  0
    9.4490    1.2530   -1.2650 C   0  0  0  0  0  0  0  0  0  0  0  0
   10.4930    1.7250   -1.9610 F   0  0  0  0  0  0  0  0  0  0  0  0
    8.1690    1.6290   -1.6080 C   0  0  0  0  0  0  0  0  0  0  0  0
    8.0290    2.4840   -2.6660 F   0  0  0  0  0  0  0  0  0  0  0  0
    7.0720    1.1830   -0.9400 C   0  0  0  0  0  0  0  0  0  0  0  0
    7.1870    0.3010    0.1550 C   0  0  0  0  0  0  0  0  0  0  0  0
    2.4050   -1.0900    0.9840 C   0  0  0  0  0  0  0  0  0  0  0  0
    1.7160   -0.8630   -0.3040 C   0  0  0  0  0  0  0  0  0  0  0  0
    0.9430    0.4020   -0.2000 C   0  0  0  0  0  0  0  0  0  0  0  0
    0.9970    1.0320    0.8880 O   0  0  0  0  0  0  0  0  0  0  0  0
    0.1640    0.9100   -1.2690 N   0  0  0  0  0  0  0  0  0  0  0  0
    0.1050    0.1900   -2.5110 C   0  0  0  0  0  0  0  0  0  0  0  0
   -0.5660    2.1370   -1.1150 C   0  0  0  0  0  0  0  0  0  0  0  0
   -1.9370    1.9320   -0.5980 C   0  0  0  0  0  0  0  0  0  0  0  0
   -2.6910    2.9210   -0.4130 O   0  0  0  0  0  0  0  0  0  0  0  0
   -2.4820    0.6570   -0.2840 N   0  0  0  0  0  0  0  0  0  0  0  0
   -3.7980    0.4290    0.2150 C   0  0  2  0  0  0  0  0  0  0  0  0
   -3.8090   -0.2010    1.5950 C   0  0  0  0  0  0  0  0  0  0  0  0
   -5.2440   -0.0920    2.0910 C   0  0  0  0  0  0  0  0  0  0  0  0
   -5.8030    1.0200    1.5540 O   0  0  0  0  0  0  0  0  0  0  0  0
   -6.5070    0.9050    0.4110 C   0  0  0  0  0  0  0  0  0  0  0  0
   -6.1250   -0.1350   -0.5580 C   0  0  1  0  0  0  0  0  0  0  0  0
   -6.9320   -1.3920   -0.2660 C   0  0  0  0  0  0  0  0  0  0  0  0
   -6.5740    0.3470   -1.9480 C   0  0  0  0  0  0  0  0  0  0  0  0
   -4.6610   -0.4220   -0.6680 C   0  0  1  0  0  0  0  0  0  0  0  0
   -4.1720   -0.2970   -1.9720 O   0  0  0  0  0  0  0  0  0  0  0  0
  1  2  1  0
  2  3  1  0
  2 19  2  0
  3  4  1  0
  4  5  2  0
  5  6  1  0
  5 19  1  0
  6  7  2  0
  6  8  1  0
  8  9  1  0
  8 18  1  0
  9 10  1  0
 10 11  1  0
 11 12  2  0
 11 18  1  0
 12 13  1  0
 13 14  1  0
 13 15  2  0
 15 16  1  0
 15 17  1  0
 17 18  2  0
 19 20  1  0
 20 21  1  0
 21 22  2  0
 21 23  1  0
 23 24  1  0
 23 25  1  0
 25 26  1  0
 26 27  2  0
 26 28  1  0
 29 28  1  6
 29 30  1  0
 29 37  1  0
 30 31  1  0
 31 32  1  0
 32 33  1  0
 33 34  1  0
 34 35  1  1
 34 36  1  0
 34 37  1  0
 37 38  1  6
M  END
