
     RDKit          3D

 38 41  0  0  0  0  0  0  0  0999 V2000
    1.0420    1.9600    2.1550 C   0  0  0  0  0  0  0  0  0  0  0  0
    0.7940    0.5300    1.7670 C   0  0  0  0  0  0  0  0  0  0  0  0
    1.1970    0.1500    0.4590 N   0  0  0  0  0  0  0  0  0  0  0  0
    2.4570   -0.3370    0.1080 C   0  0  0  0  0  0  0  0  0  0  0  0
    2.5650   -0.6390   -1.1930 O   0  0  0  0  0  0  0  0  0  0  0  0
    3.6610   -0.5860    0.8480 C   0  0  0  0  0  0  0  0  0  0  0  0
    3.9140   -0.2670    2.1540 C   0  0  0  0  0  0  0  0  0  0  0  0
    5.1250   -0.5990    2.7870 C   0  0  0  0  0  0  0  0  0  0  0  0
    6.1020   -1.2640    2.0910 C   0  0  0  0  0  0  0  0  0  0  0  0
    7.2470   -1.5590    2.7430 F   0  0  0  0  0  0  0  0  0  0  0  0
    5.9080   -1.6110    0.7740 C   0  0  0  0  0  0  0  0  0  0  0  0
    6.9290   -2.3110    0.0330 N   0  0  0  0  0  0  0  0  0  0  0  0
    6.7090   -2.6710   -1.3560 C   0  0  0  0  0  0  0  0  0  0  0  0
    4.7260   -1.2700    0.2120 C   0  0  0  0  0  0  0  0  0  0  0  0
    0.1910    0.2340   -0.6580 C   0  0  1  0  0  0  0  0  0  0  0  0
   -0.9400   -0.6590   -0.4350 C   0  0  0  0  0  0  0  0  0  0  0  0
   -2.2360   -0.4850   -0.3960 C   0  0  0  0  0  0  0  0  0  0  0  0
   -3.0410   -1.6270   -0.1460 C   0  0  0  0  0  0  0  0  0  0  0  0
   -4.4910   -1.6220   -0.0660 N   0  0  0  0  0  0  0  0  0  0  0  0
   -5.3280   -2.1800   -1.1040 C   0  0  0  0  0  0  0  0  0  0  0  0
   -6.2720   -3.1690   -0.4540 C   0  0  0  0  0  0  0  0  0  0  0  0
   -6.8780   -2.6450    0.6580 O   0  0  0  0  0  0  0  0  0  0  0  0
   -6.6230   -1.3250    0.9230 C   0  0  0  0  0  0  0  0  0  0  0  0
   -5.1350   -1.0420    1.0880 C   0  0  0  0  0  0  0  0  0  0  0  0
   -2.4350   -2.7430    0.0210 N   0  0  0  0  0  0  0  0  0  0  0  0
   -0.7590   -2.3970   -0.1360 S   0  0  2  0  0  0  0  0  0  0  0  0
    0.0140   -2.6610    1.0970 O   0  0  0  0  0  0  0  0  0  0  0  0
   -0.2100   -3.0840   -1.3440 O   0  0  0  0  0  0  0  0  0  0  0  0
   -0.1580    1.6090   -1.0150 C   0  0  0  0  0  0  0  0  0  0  0  0
   -0.9530    2.4410   -0.2640 C   0  0  0  0  0  0  0  0  0  0  0  0
   -1.2210    3.7520   -0.6720 C   0  0  0  0  0  0  0  0  0  0  0  0
   -0.7120    4.2780   -1.8330 C   0  0  0  0  0  0  0  0  0  0  0  0
   -1.0090    5.6450   -2.2290 C   0  0  0  0  0  0  0  0  0  0  0  0
   -0.5490    6.1400   -3.2900 O   0  0  0  0  0  0  0  0  0  0  0  0
   -1.8210    6.4100   -1.4060 O   0  0  0  0  0  0  0  0  0  0  0  0
    0.0860    3.4610   -2.5990 C   0  0  0  0  0  0  0  0  0  0  0  0
    0.6090    3.9640   -3.7680 F   0  0  0  0  0  0  0  0  0  0  0  0
    0.3390    2.1970   -2.1950 C   0  0  0  0  0  0  0  0  0  0  0  0
  1  2  1  0
  2  3  1  0
  3  4  1  0
 15  3  1  1
  4  5  2  0
  4  6  1  0
  6  7  2  0
  6 14  1  0
  7  8  1  0
  8  9  2  0
  9 10  1  0
  9 11  1  0
 11 12  1  0
 11 14  2  0
 12 13  1  0
 15 16  1  0
 15 29  1  0
 16 17  2  0
 16 26  1  0
 17 18  1  0
 18 19  1  0
 18 25  2  0
 19 20  1  0
 19 24  1  0
 20 21  1  0
 21 22  1  0
 22 23  1  0
 23 24  1  0
 26 25  1  1
 26 27  2  0
 26 28  2  0
 29 30  2  0
 29 38  1  0
 30 31  1  0
 31 32  2  0
 32 33  1  0
 32 36  1  0
 33 34  2  0
 33 35  1  0
 36 37  1  0
 36 38  2  0
M  END
