
     RDKit          3D

 13 14  0  0  0  0  0  0  0  0999 V2000
   -1.8190    3.5630    0.2340 O   0  0  0  0  0  0  0  0  0  0  0  0
   -0.8600    2.7650    0.1710 C   0  0  0  0  0  0  0  0  0  0  0  0
   -1.0860    1.3010    0.1730 C   0  0  0  0  0  0  0  0  0  0  0  0
   -0.0650    0.4600    0.1050 C   0  0  0  0  0  0  0  0  0  0  0  0
    1.2890    1.0640    0.0300 C   0  0  0  0  0  0  0  0  0  0  0  0
    2.3950    0.0650    0.0450 C   0  0  0  0  0  0  0  0  0  0  0  0
    2.0510   -1.2670   -0.5370 C   0  0  0  0  0  0  0  0  0  0  0  0
    0.8460   -1.7990    0.0330 O   0  0  0  0  0  0  0  0  0  0  0  0
   -0.2740   -0.9820    0.1060 C   0  0  0  0  0  0  0  0  0  0  0  0
   -1.5080   -1.4510    0.1750 C   0  0  0  0  0  0  0  0  0  0  0  0
   -1.7260   -2.8330    0.1770 O   0  0  0  0  0  0  0  0  0  0  0  0
   -2.6950   -0.5870    0.2520 C   0  0  0  0  0  0  0  0  0  0  0  0
   -2.3690    0.7850    0.2440 O   0  0  0  0  0  0  0  0  0  0  0  0
  1  2  2  0
  2  3  1  0
  3  4  2  0
  3 13  1  0
  4  5  1  0
  4  9  1  0
  5  6  1  0
  6  7  1  0
  7  8  1  0
  8  9  1  0
  9 10  2  0
 10 11  1  0
 10 12  1  0
 12 13  1  0
M  END
