
     RDKit          3D

 15 16  0  0  0  0  0  0  0  0999 V2000
   -4.0870   -1.9280    0.5730 C   0  0  0  0  0  0  0  0  0  0  0  0
   -2.6660   -1.5940    0.4180 C   0  0  0  0  0  0  0  0  0  0  0  0
   -2.3360   -0.3980   -0.0450 C   0  0  0  0  0  0  0  0  0  0  0  0
   -3.2970    0.5370   -0.3830 O   0  0  0  0  0  0  0  0  0  0  0  0
   -2.9510    1.7880   -0.8680 C   0  0  0  0  0  0  0  0  0  0  0  0
   -1.6850    2.1340   -1.0250 C   0  0  0  0  0  0  0  0  0  0  0  0
   -0.6070    1.1920   -0.6860 C   0  0  0  0  0  0  0  0  0  0  0  0
   -0.9200    0.0060   -0.2270 C   0  0  0  0  0  0  0  0  0  0  0  0
    0.0640   -1.0280    0.1760 C   0  0  0  0  0  0  0  0  0  0  0  0
    1.4050   -0.5750    0.0710 N   0  0  0  0  0  0  0  0  0  0  0  0
    1.9110    0.5040    0.8490 C   0  0  0  0  0  0  0  0  0  0  0  0
    1.1770    1.1120    1.6910 O   0  0  0  0  0  0  0  0  0  0  0  0
    3.3470    0.9180    0.6580 C   0  0  1  0  0  0  0  0  0  0  0  0
    4.2710   -0.2060    0.3720 C   0  0  0  0  0  0  0  0  0  0  0  0
    3.8940    0.7860   -0.7170 C   0  0  0  0  0  0  0  0  0  0  0  0
  1  2  1  0
  2  3  2  3
  3  4  1  0
  3  8  1  0
  4  5  1  0
  5  6  2  0
  6  7  1  0
  7  8  2  0
  8  9  1  0
  9 10  1  0
 10 11  1  0
 11 12  2  0
 13 11  1  6
 13 14  1  0
 13 15  1  0
 14 15  1  0
M  END
