
     RDKit          3D

 13 13  0  0  0  0  0  0  0  0999 V2000
    4.2350   -0.1730   -0.0140 C   0  0  0  0  0  0  0  0  0  0  0  0
    2.9030   -0.4170   -0.3290 O   0  0  0  0  0  0  0  0  0  0  0  0
    2.2840    0.7100   -0.8700 C   0  0  0  0  0  0  0  0  0  0  0  0
    0.8430    0.2990   -1.1630 C   0  0  0  0  0  0  0  0  0  0  0  0
    0.2940   -0.0860    0.1000 O   0  0  0  0  0  0  0  0  0  0  0  0
   -1.0300   -0.5060    0.0830 C   0  0  0  0  0  0  0  0  0  0  0  0
   -1.2560   -1.7950   -0.0830 C   0  0  0  0  0  0  0  0  0  0  0  0
   -2.6490   -2.2650   -0.1050 C   0  0  0  0  0  0  0  0  0  0  0  0
   -3.6390   -1.3930    0.0410 C   0  0  0  0  0  0  0  0  0  0  0  0
   -3.4120   -0.0390    0.2160 O   0  0  0  0  0  0  0  0  0  0  0  0
   -2.1150    0.4530    0.2440 C   0  0  0  0  0  0  0  0  0  0  0  0
   -1.8650    1.7480    0.4100 C   0  0  0  0  0  0  0  0  0  0  0  0
   -2.8700    2.6800    0.5640 O   0  0  0  0  0  0  0  0  0  0  0  0
  1  2  1  0
  2  3  1  0
  3  4  1  0
  4  5  1  0
  5  6  1  0
  6  7  2  0
  6 11  1  0
  7  8  1  0
  8  9  2  0
  9 10  1  0
 10 11  1  0
 11 12  2  3
 12 13  1  0
M  END
