
     RDKit          3D

 13 14  0  0  0  0  0  0  0  0999 V2000
    1.6810    1.8890   -1.5120 O   0  0  0  0  0  0  0  0  0  0  0  0
    2.0630    0.9240   -0.8180 C   0  0  0  0  0  0  0  0  0  0  0  0
    3.3910    0.5290   -0.6570 O   0  0  0  0  0  0  0  0  0  0  0  0
    3.4740   -0.5750    0.1730 C   0  0  0  0  0  0  0  0  0  0  0  0
    2.0440   -0.8510    0.5350 C   0  0  0  0  0  0  0  0  0  0  0  0
    1.2250    0.0100   -0.0340 C   0  0  0  0  0  0  0  0  0  0  0  0
   -0.2440    0.0370    0.1000 C   0  0  0  0  0  0  0  0  0  0  0  0
   -0.9740    0.9410   -0.5100 C   0  0  0  0  0  0  0  0  0  0  0  0
   -2.4520    0.9760   -0.3800 C   0  0  0  0  0  0  0  0  0  0  0  0
   -3.0650   -0.3050    0.0510 C   0  0  0  0  0  0  0  0  0  0  0  0
   -2.2970   -0.9610    1.0500 O   0  0  0  0  0  0  0  0  0  0  0  0
   -0.8860   -0.9660    0.9190 C   0  0  0  0  0  0  0  0  0  0  0  0
   -0.3180   -1.8820    1.5550 O   0  0  0  0  0  0  0  0  0  0  0  0
  1  2  2  0
  2  3  1  0
  2  6  1  0
  3  4  1  0
  4  5  1  0
  5  6  2  0
  6  7  1  0
  7  8  2  0
  7 12  1  0
  8  9  1  0
  9 10  1  0
 10 11  1  0
 11 12  1  0
 12 13  2  0
M  END
