
     RDKit          3D

 35 38  0  0  0  0  0  0  0  0999 V2000
   -3.9110   -4.5810    0.3860 C   0  0  0  0  0  0  0  0  0  0  0  0
   -4.4600   -3.2330    0.1880 C   0  0  0  0  0  0  0  0  0  0  0  0
   -5.7430   -2.9250    0.5470 C   0  0  0  0  0  0  0  0  0  0  0  0
   -6.2820   -1.6690    0.3730 C   0  0  0  0  0  0  0  0  0  0  0  0
   -7.6920   -1.4090    0.7970 C   0  0  0  0  0  0  0  0  0  0  0  0
   -5.4980   -0.6530   -0.1940 C   0  0  0  0  0  0  0  0  0  0  0  0
   -6.0560    0.6650   -0.3820 C   0  0  0  0  0  0  0  0  0  0  0  0
   -7.2880    0.8100   -0.1820 O   0  0  0  0  0  0  0  0  0  0  0  0
   -5.3030    1.7620   -0.7660 N   0  0  0  0  0  0  0  0  0  0  0  0
   -5.9180    3.0530   -0.6460 C   0  0  1  0  0  0  0  0  0  0  0  0
   -7.2970    3.3120   -1.1730 C   0  0  0  0  0  0  0  0  0  0  0  0
   -7.0070    3.3900    0.2770 C   0  0  0  0  0  0  0  0  0  0  0  0
   -4.2230   -0.9940   -0.5410 C   0  0  0  0  0  0  0  0  0  0  0  0
   -3.1130    0.1630   -1.3090 S   0  0  0  0  0  0  0  0  0  0  0  0
   -1.4820   -0.5680   -1.5940 C   0  0  0  0  0  0  0  0  0  0  0  0
   -0.9050   -0.8120   -0.2140 C   0  0  0  0  0  0  0  0  0  0  0  0
   -0.9390   -1.9490    0.2990 O   0  0  0  0  0  0  0  0  0  0  0  0
   -0.3480    0.3100    0.4240 N   0  0  0  0  0  0  0  0  0  0  0  0
    0.9170    0.4480    0.5320 C   0  0  0  0  0  0  0  0  0  0  0  0
    1.7210   -0.6390   -0.0540 C   0  0  0  0  0  0  0  0  0  0  0  0
    2.7700   -0.0190   -0.9430 C   0  0  0  0  0  0  0  0  0  0  0  0
    3.9030    0.5330   -0.1090 C   0  0  1  0  0  0  0  0  0  0  0  0
    5.1780    0.2270   -0.6860 N   0  0  2  0  0  0  0  0  0  0  0  0
    5.6210   -1.1040   -0.3000 C   0  0  0  0  0  0  0  0  0  0  0  0
    7.0480   -1.3700   -0.6430 C   0  0  0  0  0  0  0  0  0  0  0  0
    8.0800   -0.7170    0.1530 C   0  0  0  0  0  0  0  0  0  0  0  0
    7.6810    0.1830    1.2600 C   0  0  2  0  0  0  0  0  0  0  0  0
    7.1120   -0.6940    2.7030 Cl  0  0  0  0  0  0  0  0  0  0  0  0
    6.7450    1.3000    0.8840 C   0  0  0  0  0  0  0  0  0  0  0  0
    6.2010    1.1940   -0.5030 C   0  0  0  0  0  0  0  0  0  0  0  0
    3.6660    2.0150   -0.0340 C   0  0  0  0  0  0  0  0  0  0  0  0
    2.4970    2.3340    0.8290 C   0  0  0  0  0  0  0  0  0  0  0  0
    2.5290    3.4860    1.3220 O   0  0  0  0  0  0  0  0  0  0  0  0
    1.3980    1.5840    1.1750 O   0  0  0  0  0  0  0  0  0  0  0  0
   -3.7220   -2.2540   -0.3520 N   0  0  0  0  0  0  0  0  0  0  0  0
  1  2  1  0
  2  3  2  0
  2 35  1  0
  3  4  1  0
  4  5  1  0
  4  6  2  0
  6  7  1  0
  6 13  1  0
  7  8  2  0
  7  9  1  0
 10  9  1  1
 10 11  1  0
 10 12  1  0
 11 12  1  0
 13 14  1  0
 13 35  2  0
 14 15  1  0
 15 16  1  0
 16 17  2  0
 16 18  1  0
 18 19  2  3
 19 20  1  0
 19 34  1  0
 20 21  1  0
 22 21  1  6
 22 23  1  0
 22 31  1  0
 23 24  1  1
 23 30  1  0
 24 25  1  0
 25 26  1  0
 26 27  1  0
 27 28  1  1
 27 29  1  0
 29 30  1  0
 31 32  1  0
 32 33  2  0
 32 34  1  0
M  CHG  2   9   1  23   1
M  END
