
     RDKit          3D

 35 39  0  0  0  0  0  0  0  0999 V2000
   -4.1370    0.0910   -2.7660 C   0  0  0  0  0  0  0  0  0  0  0  0
   -4.2980   -0.7670   -1.5010 C   0  0  1  0  0  0  0  0  0  0  0  0
   -2.9770   -1.0500   -0.9380 C   0  0  0  0  0  0  0  0  0  0  0  0
   -1.9730   -1.9290   -1.4920 C   0  0  0  0  0  0  0  0  0  0  0  0
   -2.2040   -2.6920   -2.5450 C   0  0  0  0  0  0  0  0  0  0  0  0
   -3.7190   -2.7690   -3.4140 Cl  0  0  0  0  0  0  0  0  0  0  0  0
   -0.8360   -3.7630   -3.1340 S   0  0  0  0  0  0  0  0  0  0  0  0
    0.6080   -2.6900   -2.9510 C   0  0  0  0  0  0  0  0  0  0  0  0
    1.6250   -2.7400   -3.6290 O   0  0  0  0  0  0  0  0  0  0  0  0
    0.4530   -1.7400   -1.9040 N   0  0  0  0  0  0  0  0  0  0  0  0
    1.2690   -0.5720   -1.8320 C   0  0  0  0  0  0  0  0  0  0  0  0
    2.5560   -0.7400   -1.0650 C   0  0  2  0  0  0  0  0  0  0  0  0
    3.3810   -1.7030   -1.6010 O   0  0  0  0  0  0  0  0  0  0  0  0
    2.3080   -1.1560    0.3900 C   0  0  0  0  0  0  0  0  0  0  0  0
    3.6760   -1.4670    0.9440 C   0  0  0  0  0  0  0  0  0  0  0  0
    4.5040   -0.2500    0.9150 N   0  0  0  0  0  0  0  0  0  0  0  0
    5.3300    0.0120    2.0290 C   0  0  0  0  0  0  0  0  0  0  0  0
    5.2390   -0.8320    2.9910 O   0  0  0  0  0  0  0  0  0  0  0  0
    6.2460    1.1120    2.1820 C   0  0  0  0  0  0  0  0  0  0  0  0
    6.9440    1.2250    3.3050 N   0  0  0  0  0  0  0  0  0  0  0  0
    7.7490    2.3090    3.2790 O   0  0  0  0  0  0  0  0  0  0  0  0
    7.9620    2.7080    1.9370 C   0  0  0  0  0  0  0  0  0  0  0  0
    6.6430    2.2360    1.3130 C   0  0  0  0  0  0  0  0  0  0  0  0
    4.4780    0.6510   -0.1970 C   0  0  0  0  0  0  0  0  0  0  0  0
    3.1870    0.6280   -0.9750 C   0  0  0  0  0  0  0  0  0  0  0  0
   -0.5810   -1.9850   -0.9000 C   0  0  0  0  0  0  0  0  0  0  0  0
   -2.6390   -0.3840    0.1890 C   0  0  0  0  0  0  0  0  0  0  0  0
   -3.3330    0.8850    0.5310 C   0  0  0  0  0  0  0  0  0  0  0  0
   -4.2390    1.2360   -0.3500 C   0  0  0  0  0  0  0  0  0  0  0  0
   -5.1090    0.0800   -0.6190 N   0  0  2  0  0  0  0  0  0  0  0  0
   -5.4270   -0.4920    0.6410 C   0  0  0  0  0  0  0  0  0  0  0  0
   -6.0260    0.4670    1.5940 C   0  0  0  0  0  0  0  0  0  0  0  0
   -5.2120    1.5180    2.2200 C   0  0  0  0  0  0  0  0  0  0  0  0
   -3.9270    1.1390    2.8840 C   0  0  0  0  0  0  0  0  0  0  0  0
   -2.7650    1.2030    1.8660 C   0  0  0  0  0  0  0  0  0  0  0  0
  2  1  1  6
  2  3  1  0
  2 30  1  0
  3  4  1  0
  3 27  2  0
  4  5  2  0
  4 26  1  0
  5  6  1  0
  5  7  1  0
  7  8  1  0
  8  9  2  0
  8 10  1  0
 10 11  1  0
 10 26  1  0
 11 12  1  0
 12 13  1  6
 12 14  1  0
 12 25  1  0
 14 15  1  0
 15 16  1  0
 16 17  1  0
 16 24  1  0
 17 18  2  0
 17 19  1  0
 19 20  2  0
 19 23  1  0
 20 21  1  0
 21 22  1  0
 22 23  1  0
 24 25  1  0
 27 28  1  0
 28 29  2  0
 28 35  1  0
 29 30  1  0
 30 31  1  1
 31 32  1  0
 32 33  1  0
 33 34  1  0
 34 35  1  0
M  CHG  1  30   1
M  END
