
     RDKit          3D

 34 37  0  0  0  0  0  0  0  0999 V2000
   -1.9400    4.2810   -1.8600 C   0  0  0  0  0  0  0  0  0  0  0  0
   -1.5760    3.0690   -0.9820 C   0  0  0  0  0  0  0  0  0  0  0  0
   -1.9030    1.8400   -1.6460 N   0  0  2  0  0  0  0  0  0  0  0  0
   -3.3080    1.5290   -1.7380 C   0  0  0  0  0  0  0  0  0  0  0  0
   -4.2400    2.1510   -0.7950 C   0  0  0  0  0  0  0  0  0  0  0  0
   -4.5170    1.5100    0.3760 O   0  0  0  0  0  0  0  0  0  0  0  0
   -4.9410    0.2520    0.6440 S   0  0  0  0  0  0  0  0  0  0  0  0
   -7.0320    0.1960    0.6740 O   0  0  0  0  0  0  0  0  0  0  0  0
   -5.3570   -0.2320   -0.6600 F   0  0  0  0  0  0  0  0  0  0  0  0
   -4.5920   -1.2500    1.2370 C   0  0  0  0  0  0  0  0  0  0  0  0
   -3.8660   -2.2230    0.3210 C   0  0  2  0  0  0  0  0  0  0  0  0
   -4.4410   -3.6380    0.4660 C   0  0  0  0  0  0  0  0  0  0  0  0
   -3.5930   -4.3050    1.5190 C   0  0  0  0  0  0  0  0  0  0  0  0
   -2.5310   -3.3140    1.8700 C   0  0  0  0  0  0  0  0  0  0  0  0
   -2.4940   -2.4460    0.7240 N   0  0  2  0  0  0  0  0  0  0  0  0
   -1.8520   -1.1960    0.9230 C   0  0  0  0  0  0  0  0  0  0  0  0
   -0.6130   -1.0100    0.2180 N   0  0  0  0  0  0  0  0  0  0  0  0
    0.5440   -1.5210    0.8950 C   0  0  0  0  0  0  0  0  0  0  0  0
    1.7980   -1.3240    0.1280 C   0  0  0  0  0  0  0  0  0  0  0  0
    2.0500   -2.0900   -1.0100 C   0  0  0  0  0  0  0  0  0  0  0  0
    3.2190   -1.9100   -1.7150 C   0  0  0  0  0  0  0  0  0  0  0  0
    3.4860   -2.7270   -2.9260 C   0  0  0  0  0  0  0  0  0  0  0  0
    4.1670   -0.9690   -1.3090 C   0  0  0  0  0  0  0  0  0  0  0  0
    3.9430   -0.2040   -0.1930 C   0  0  0  0  0  0  0  0  0  0  0  0
    4.8650    0.7620    0.2700 N   0  0  0  0  0  0  0  0  0  0  0  0
    4.5270    1.5990    1.4100 C   0  0  0  0  0  0  0  0  0  0  0  0
    5.4930    2.7620    1.5400 C   0  0  0  0  0  0  0  0  0  0  0  0
    6.9020    2.2770    1.6150 C   0  0  0  0  0  0  0  0  0  0  0  0
    7.1510    1.0270    0.8290 C   0  0  0  0  0  0  0  0  0  0  0  0
    6.1550    0.9800   -0.3250 C   0  0  0  0  0  0  0  0  0  0  0  0
    2.7580   -0.4160    0.4840 C   0  0  0  0  0  0  0  0  0  0  0  0
   -0.4920    0.4080   -0.0930 C   0  0  2  0  0  0  0  0  0  0  0  0
   -0.8970    1.1800    1.1040 C   0  0  0  0  0  0  0  0  0  0  0  0
   -1.0700    0.7170   -1.3990 C   0  0  0  0  0  0  0  0  0  0  0  0
  1  2  1  0
  3  2  1  1
  3  4  1  0
  3 34  1  0
  4  5  1  0
  5  6  1  0
  6  7  1  0
  7  8  2  0
  7  9  1  0
  7 10  1  0
 11 10  1  1
 11 12  1  0
 11 15  1  0
 12 13  1  0
 13 14  1  0
 15 14  1  1
 15 16  1  0
 16 17  1  0
 17 18  1  0
 17 32  1  0
 18 19  1  0
 19 20  2  0
 19 31  1  0
 20 21  1  0
 21 22  1  0
 21 23  2  0
 23 24  1  0
 24 25  1  0
 24 31  2  0
 25 26  1  0
 25 30  1  0
 26 27  1  0
 27 28  1  0
 28 29  1  0
 29 30  1  0
 32 33  1  1
 32 34  1  0
M  CHG  2   3   1  15   1
M  END
