
     RDKit          3D

 35 38  0  0  0  0  0  0  0  0999 V2000
   -6.8770    2.5420    1.8510 C   0  0  0  0  0  0  0  0  0  0  0  0
   -7.5100    1.3200    1.2820 C   0  0  0  0  0  0  0  0  0  0  0  0
   -6.6330    0.5420   -0.0660 S   0  0  0  0  0  0  0  0  0  0  0  0
   -5.0680   -0.2160    0.4040 C   0  0  2  0  0  0  0  0  0  0  0  0
   -4.0890    0.8570    0.8110 C   0  0  0  0  0  0  0  0  0  0  0  0
   -2.7670    0.2300    1.1050 C   0  0  0  0  0  0  0  0  0  0  0  0
   -2.2610   -0.4360   -0.0660 N   0  0  2  0  0  0  0  0  0  0  0  0
   -1.7810    0.4690   -1.0610 C   0  0  0  0  0  0  0  0  0  0  0  0
   -0.2970    0.6900   -0.9260 C   0  0  0  0  0  0  0  0  0  0  0  0
    0.3580    1.5440   -1.7670 C   0  0  0  0  0  0  0  0  0  0  0  0
    1.7550    1.7670   -1.6550 C   0  0  0  0  0  0  0  0  0  0  0  0
    2.3640    2.6720   -2.5400 N   0  0  0  0  0  0  0  0  0  0  0  0
    3.7440    2.7540   -2.7380 C   0  0  0  0  0  0  0  0  0  0  0  0
    4.5870    2.0390   -2.1660 O   0  0  0  0  0  0  0  0  0  0  0  0
    4.4260    3.9400   -3.8750 Cl  0  0  0  0  0  0  0  0  0  0  0  0
    2.4410    1.1070   -0.6830 C   0  0  0  0  0  0  0  0  0  0  0  0
    1.7230    0.2420    0.1530 C   0  0  0  0  0  0  0  0  0  0  0  0
    2.4340   -0.4290    1.1450 O   0  0  0  0  0  0  0  0  0  0  0  0
    3.7950   -0.2620    1.3150 C   0  0  0  0  0  0  0  0  0  0  0  0
    4.2450    0.7410    2.1710 C   0  0  0  0  0  0  0  0  0  0  0  0
    5.5890    0.9660    2.3890 C   0  0  0  0  0  0  0  0  0  0  0  0
    6.5080    0.1700    1.7380 C   0  0  0  0  0  0  0  0  0  0  0  0
    6.1160   -0.8400    0.8770 C   0  0  0  0  0  0  0  0  0  0  0  0
    4.7540   -1.0290    0.6890 C   0  0  0  0  0  0  0  0  0  0  0  0
    6.9090   -1.7190    0.1520 O   0  0  0  0  0  0  0  0  0  0  0  0
    8.2170   -1.4440   -0.3370 C   0  0  0  0  0  0  0  0  0  0  0  0
    9.1220   -1.1790    0.8270 C   0  0  0  0  0  0  0  0  0  0  0  0
    9.0320    0.2340    1.3330 C   0  0  0  0  0  0  0  0  0  0  0  0
    7.8370    0.4890    2.0360 O   0  0  0  0  0  0  0  0  0  0  0  0
    0.4140    0.0540    0.0230 N   0  0  0  0  0  0  0  0  0  0  0  0
   -3.1470   -1.4620   -0.5710 C   0  0  0  0  0  0  0  0  0  0  0  0
   -4.5360   -0.9790   -0.7940 C   0  0  1  0  0  0  0  0  0  0  0  0
   -5.4230   -2.0550   -1.1040 N   0  0  1  0  0  0  0  0  0  0  0  0
   -5.2230   -2.5950   -2.4350 C   0  0  0  0  0  0  0  0  0  0  0  0
   -5.4120   -3.1390   -0.1700 C   0  0  0  0  0  0  0  0  0  0  0  0
  1  2  1  0
  2  3  1  0
  4  3  1  6
  4  5  1  0
  4 32  1  0
  5  6  1  0
  6  7  1  0
  7  8  1  6
  7 31  1  0
  8  9  1  0
  9 10  2  0
  9 30  1  0
 10 11  1  0
 11 12  1  0
 11 16  2  0
 12 13  1  0
 13 14  2  0
 13 15  1  0
 16 17  1  0
 17 18  1  0
 17 30  2  0
 18 19  1  0
 19 20  2  0
 19 24  1  0
 20 21  1  0
 21 22  2  0
 22 23  1  0
 22 29  1  0
 23 24  2  0
 23 25  1  0
 25 26  1  0
 26 27  1  0
 27 28  1  0
 28 29  1  0
 32 31  1  1
 32 33  1  0
 33 34  1  6
 33 35  1  0
M  CHG  2   7   1  33   1
M  END
