
     RDKit          3D

 33 37  0  0  0  0  0  0  0  0999 V2000
   -6.6120   -3.7950   -0.9510 C   0  0  0  0  0  0  0  0  0  0  0  0
   -5.9720   -2.4680   -0.8280 C   0  0  0  0  0  0  0  0  0  0  0  0
   -6.2080   -1.2800   -1.3950 C   0  0  0  0  0  0  0  0  0  0  0  0
   -5.4450   -0.2050   -1.0930 C   0  0  0  0  0  0  0  0  0  0  0  0
   -4.4480   -0.4080   -0.1990 C   0  0  0  0  0  0  0  0  0  0  0  0
   -4.5590   -2.0980    0.2340 S   0  0  0  0  0  0  0  0  0  0  0  0
   -3.4250    0.5510    0.3580 C   0  0  2  0  0  0  0  0  0  0  0  0
   -2.4210   -0.1900    1.0780 N   0  0  0  0  0  0  0  0  0  0  0  0
   -1.8190   -1.2210    0.2580 C   0  0  0  0  0  0  0  0  0  0  0  0
   -0.3470   -0.9920   -0.0170 C   0  0  0  0  0  0  0  0  0  0  0  0
    0.3960   -0.8430    1.2230 N   0  0  0  0  0  0  0  0  0  0  0  0
    1.6750   -1.3630    1.4730 C   0  0  0  0  0  0  0  0  0  0  0  0
    2.2070   -1.1670    2.5930 O   0  0  0  0  0  0  0  0  0  0  0  0
    2.4450   -2.1420    0.4710 C   0  0  1  0  0  0  0  0  0  0  0  0
    2.6420   -1.4530   -0.8280 C   0  0  0  0  0  0  0  0  0  0  0  0
    4.1180   -1.5930   -1.1100 C   0  0  0  0  0  0  0  0  0  0  0  0
    4.6780   -1.9250    0.2450 C   0  0  1  0  0  0  0  0  0  0  0  0
    5.1310   -0.7560    1.0360 C   0  0  0  0  0  0  0  0  0  0  0  0
    6.2070    0.0210    0.5250 N   0  0  2  0  0  0  0  0  0  0  0  0
    5.8040    1.2630   -0.0710 C   0  0  0  0  0  0  0  0  0  0  0  0
    6.5250    1.5470   -1.3670 C   0  0  0  0  0  0  0  0  0  0  0  0
    8.0050    1.5310   -1.0720 C   0  0  0  0  0  0  0  0  0  0  0  0
    8.3850    0.2560   -0.3980 C   0  0  0  0  0  0  0  0  0  0  0  0
    7.1840   -0.6940   -0.2580 C   0  0  0  0  0  0  0  0  0  0  0  0
    3.6530   -2.5500    0.9520 O   0  0  0  0  0  0  0  0  0  0  0  0
   -0.2850   -0.0880    2.2590 C   0  0  0  0  0  0  0  0  0  0  0  0
   -1.3760    0.7040    1.5100 C   0  0  0  0  0  0  0  0  0  0  0  0
   -4.1590    1.5100    1.1160 N   0  0  1  0  0  0  0  0  0  0  0  0
   -3.6080    2.8150    1.2340 C   0  0  0  0  0  0  0  0  0  0  0  0
   -5.5470    1.6080    0.6940 C   0  0  0  0  0  0  0  0  0  0  0  0
   -5.7440    2.2410   -0.6460 C   0  0  2  0  0  0  0  0  0  0  0  0
   -7.1960    2.7540   -0.6680 C   0  0  0  0  0  0  0  0  0  0  0  0
   -5.6770    1.1780   -1.7190 C   0  0  0  0  0  0  0  0  0  0  0  0
  1  2  1  0
  2  3  2  0
  2  6  1  0
  3  4  1  0
  4  5  2  0
  4 33  1  0
  5  6  1  0
  5  7  1  0
  7  8  1  1
  7 28  1  0
  8  9  1  0
  8 27  1  0
  9 10  1  0
 10 11  1  0
 11 12  1  0
 11 26  1  0
 12 13  2  0
 14 12  1  1
 14 15  1  0
 14 25  1  0
 15 16  1  0
 16 17  1  0
 17 18  1  1
 17 25  1  0
 19 18  1  6
 19 20  1  0
 19 24  1  0
 20 21  1  0
 21 22  1  0
 22 23  1  0
 23 24  1  0
 26 27  1  0
 28 29  1  6
 28 30  1  0
 30 31  1  0
 31 32  1  1
 31 33  1  0
M  CHG  2  19   1  28   1
M  END
