
     RDKit          3D

 35 38  0  0  0  0  0  0  0  0999 V2000
   -7.0690    0.8250    0.7170 C   0  0  0  0  0  0  0  0  0  0  0  0
   -6.2200   -0.4160    0.4110 C   0  0  2  0  0  0  0  0  0  0  0  0
   -6.6220   -1.5180    1.3720 C   0  0  0  0  0  0  0  0  0  0  0  0
   -6.3260   -0.9710    3.0620 Cl  0  0  0  0  0  0  0  0  0  0  0  0
   -4.8810   -0.0900    0.6380 O   0  0  0  0  0  0  0  0  0  0  0  0
   -3.8570   -0.1610   -0.2890 C   0  0  0  0  0  0  0  0  0  0  0  0
   -4.1780   -0.5590   -1.4510 O   0  0  0  0  0  0  0  0  0  0  0  0
   -2.4490    0.2110    0.0670 C   0  0  2  0  0  0  0  0  0  0  0  0
   -2.4210    1.5260    0.7440 C   0  0  0  0  0  0  0  0  0  0  0  0
   -3.0220    2.6560    0.0180 C   0  0  0  0  0  0  0  0  0  0  0  0
   -2.9360    2.6480   -1.4500 C   0  0  0  0  0  0  0  0  0  0  0  0
   -1.6950    2.2240   -2.1040 C   0  0  0  0  0  0  0  0  0  0  0  0
   -0.8180    1.2310   -1.3740 C   0  0  0  0  0  0  0  0  0  0  0  0
   -1.5480    0.0430   -1.0470 N   0  0  1  0  0  0  0  0  0  0  0  0
   -0.6730   -1.0480   -0.8590 C   0  0  0  0  0  0  0  0  0  0  0  0
   -1.2410   -2.3000   -0.6020 C   0  0  0  0  0  0  0  0  0  0  0  0
   -0.3930   -3.3570   -0.4240 C   0  0  0  0  0  0  0  0  0  0  0  0
    0.9710   -3.2450   -0.4850 C   0  0  0  0  0  0  0  0  0  0  0  0
    1.5020   -1.9980   -0.7380 C   0  0  0  0  0  0  0  0  0  0  0  0
    0.6820   -0.8770   -0.9300 C   0  0  0  0  0  0  0  0  0  0  0  0
    2.9140   -1.8820   -0.7950 N   0  0  0  0  0  0  0  0  0  0  0  0
    3.5750   -0.7720   -0.2620 C   0  0  0  0  0  0  0  0  0  0  0  0
    4.8260   -0.6440   -0.5200 O   0  0  0  0  0  0  0  0  0  0  0  0
    2.9700    0.2610    0.5750 C   0  0  0  0  0  0  0  0  0  0  0  0
    4.0490    0.5730    2.0440 S   0  0  0  0  0  0  0  0  0  0  0  0
    5.6180    1.2350    1.5300 C   0  0  0  0  0  0  0  0  0  0  0  0
    5.7260    2.6110    1.3680 C   0  0  0  0  0  0  0  0  0  0  0  0
    6.9380    3.1200    0.9690 C   0  0  0  0  0  0  0  0  0  0  0  0
    8.0040    2.3130    0.7380 N   0  0  0  0  0  0  0  0  0  0  0  0
    7.9270    0.9770    0.8880 C   0  0  0  0  0  0  0  0  0  0  0  0
    6.7170    0.4650    1.2870 C   0  0  0  0  0  0  0  0  0  0  0  0
    3.6930   -3.0200   -1.3810 C   0  0  0  0  0  0  0  0  0  0  0  0
    3.2420   -4.1620   -0.4910 C   0  0  0  0  0  0  0  0  0  0  0  0
    4.0640   -4.8690    0.0810 O   0  0  0  0  0  0  0  0  0  0  0  0
    1.8400   -4.3730   -0.3530 N   0  0  0  0  0  0  0  0  0  0  0  0
  2  1  1  1
  2  3  1  0
  2  5  1  0
  3  4  1  0
  5  6  1  0
  6  7  2  0
  8  6  1  6
  8  9  1  0
  8 14  1  0
  9 10  1  0
 10 11  1  0
 11 12  1  0
 12 13  1  0
 13 14  1  0
 14 15  1  1
 15 16  2  0
 15 20  1  0
 16 17  1  0
 17 18  2  0
 18 19  1  0
 18 35  1  0
 19 20  2  0
 19 21  1  0
 21 22  1  0
 21 32  1  0
 22 23  2  0
 22 24  1  0
 24 25  1  0
 25 26  1  0
 26 27  2  0
 26 31  1  0
 27 28  1  0
 28 29  2  0
 29 30  1  0
 30 31  2  0
 32 33  1  0
 33 34  2  0
 33 35  1  0
M  CHG  2  14   1  29   1
M  END
