
     RDKit          3D

 33 37  0  0  0  0  0  0  0  0999 V2000
   -6.0210   -1.9830   -1.0520 C   0  0  0  0  0  0  0  0  0  0  0  0
   -5.5450   -2.3800    0.3010 C   0  0  2  0  0  0  0  0  0  0  0  0
   -6.6730   -2.4940    1.2970 C   0  0  0  0  0  0  0  0  0  0  0  0
   -4.4240   -1.7400    0.8390 N   0  0  0  0  0  0  0  0  0  0  0  0
   -3.9910   -0.5920    1.1600 C   0  0  0  0  0  0  0  0  0  0  0  0
   -4.6450    0.6610    1.0510 C   0  0  0  0  0  0  0  0  0  0  0  0
   -3.9440    1.8260    1.2710 C   0  0  0  0  0  0  0  0  0  0  0  0
   -4.7690    3.0730    1.1300 C   0  0  0  0  0  0  0  0  0  0  0  0
   -5.3770    3.0500   -0.2500 C   0  0  0  0  0  0  0  0  0  0  0  0
   -6.2730    1.8660   -0.3770 C   0  0  0  0  0  0  0  0  0  0  0  0
   -6.0740    0.8750    0.7700 C   0  0  0  0  0  0  0  0  0  0  0  0
   -2.6470   -0.6530    1.7650 N   0  0  0  0  0  0  0  0  0  0  0  0
   -1.6770   -1.7160    1.4590 C   0  0  0  0  0  0  0  0  0  0  0  0
   -0.3520   -1.1100    1.6640 C   0  0  1  0  0  0  0  0  0  0  0  0
    0.4720   -1.0780    0.3980 C   0  0  0  0  0  0  0  0  0  0  0  0
    1.4830   -1.3760   -0.1120 N   0  0  0  0  0  0  0  0  0  0  0  0
    1.9230   -1.1910   -1.3270 C   0  0  0  0  0  0  0  0  0  0  0  0
    3.2920   -1.6710   -1.7640 C   0  0  0  0  0  0  0  0  0  0  0  0
    4.2290   -0.6080   -1.6120 N   0  0  2  0  0  0  0  0  0  0  0  0
    5.5680   -1.0490   -2.0150 C   0  0  0  0  0  0  0  0  0  0  0  0
    6.3150    0.2310   -2.3780 C   0  0  0  0  0  0  0  0  0  0  0  0
    5.9800    1.3610   -1.4710 C   0  0  2  0  0  0  0  0  0  0  0  0
    7.1010    2.1370   -1.2830 O   0  0  0  0  0  0  0  0  0  0  0  0
    8.0690    1.5840   -0.4890 C   0  0  0  0  0  0  0  0  0  0  0  0
    7.5200    1.5930    0.9450 C   0  0  0  0  0  0  0  0  0  0  0  0
    6.3240    0.6590    0.9210 C   0  0  0  0  0  0  0  0  0  0  0  0
    5.3490    0.9850   -0.1730 C   0  0  2  0  0  0  0  0  0  0  0  0
    4.3520   -0.1310   -0.2620 C   0  0  0  0  0  0  0  0  0  0  0  0
    1.0540   -0.5350   -2.1490 C   0  0  0  0  0  0  0  0  0  0  0  0
   -0.3630   -0.2210   -1.1070 S   0  0  0  0  0  0  0  0  0  0  0  0
   -0.5550    0.2770    2.2010 C   0  0  0  0  0  0  0  0  0  0  0  0
   -1.9720    0.2010    2.6450 C   0  0  0  0  0  0  0  0  0  0  0  0
   -2.4420    0.8050    3.6400 O   0  0  0  0  0  0  0  0  0  0  0  0
  2  1  1  6
  2  3  1  0
  2  4  1  0
  4  5  2  3
  5  6  1  0
  5 12  1  0
  6  7  2  0
  6 11  1  0
  7  8  1  0
  8  9  1  0
  9 10  1  0
 10 11  1  0
 12 13  1  0
 12 32  1  0
 13 14  1  0
 14 15  1  6
 14 31  1  0
 15 16  2  0
 15 30  1  0
 16 17  1  0
 17 18  1  0
 17 29  2  0
 19 18  1  1
 19 20  1  0
 19 28  1  0
 20 21  1  0
 22 21  1  1
 22 23  1  0
 22 27  1  0
 23 24  1  0
 24 25  1  0
 25 26  1  0
 27 26  1  1
 27 28  1  0
 29 30  1  0
 31 32  1  0
 32 33  2  0
M  CHG  2   4   1  19   1
M  END
