
     RDKit          3D

 21 22  0  0  0  0  0  0  0  0999 V2000
    4.7570   -2.2960   -1.1760 C   0  0  0  0  0  0  0  0  0  0  0  0
    3.6370   -2.2620   -0.1860 C   0  0  0  0  0  0  0  0  0  0  0  0
    3.0840   -0.8380   -0.0930 C   0  0  0  0  0  0  0  0  0  0  0  0
    1.9500   -0.7930    0.9210 C   0  0  0  0  0  0  0  0  0  0  0  0
    1.4080    0.6110    1.0210 C   0  0  0  0  0  0  0  0  0  0  0  0
    0.8500    1.0930   -0.2640 C   0  0  2  0  0  0  0  0  0  0  0  0
    0.3760    2.5620   -0.0830 C   0  0  0  0  0  0  0  0  0  0  0  0
   -0.6800    2.6870    0.9620 C   0  0  0  0  0  0  0  0  0  0  0  0
   -1.0960    4.1480    1.0650 C   0  0  0  0  0  0  0  0  0  0  0  0
   -0.3730    0.4130   -0.7410 C   0  0  0  0  0  0  0  0  0  0  0  0
   -0.6730    0.5490   -2.0940 C   0  0  0  0  0  0  0  0  0  0  0  0
    0.0960    1.2290   -3.0140 O   0  0  0  0  0  0  0  0  0  0  0  0
   -1.8450   -0.0370   -2.6050 C   0  0  0  0  0  0  0  0  0  0  0  0
   -2.6630   -0.7310   -1.7470 C   0  0  0  0  0  0  0  0  0  0  0  0
   -3.9100   -1.3660   -2.2370 C   0  0  0  0  0  0  0  0  0  0  0  0
   -2.3620   -0.8630   -0.4080 C   0  0  0  0  0  0  0  0  0  0  0  0
   -2.9450   -1.4640    0.6880 C   0  0  0  0  0  0  0  0  0  0  0  0
   -2.1330   -1.2310    1.7930 C   0  0  0  0  0  0  0  0  0  0  0  0
   -2.4340   -1.7270    3.1610 C   0  0  0  0  0  0  0  0  0  0  0  0
   -1.1090   -0.5210    1.3780 O   0  0  0  0  0  0  0  0  0  0  0  0
   -1.2000   -0.2810    0.0960 C   0  0  0  0  0  0  0  0  0  0  0  0
  1  2  1  0
  2  3  1  0
  3  4  1  0
  4  5  1  0
  6  5  1  1
  6  7  1  0
  6 10  1  0
  7  8  1  0
  8  9  1  0
 10 11  2  0
 10 21  1  0
 11 12  1  0
 11 13  1  0
 13 14  2  0
 14 15  1  0
 14 16  1  0
 16 17  1  0
 16 21  2  0
 17 18  2  0
 18 19  1  0
 18 20  1  0
 20 21  1  0
M  END
