
     RDKit          3D

 10 10  0  0  0  0  0  0  0  0999 V2000
    3.0070   -1.1460   -0.2590 Cl  0  0  0  0  0  0  0  0  0  0  0  0
    1.4010   -0.4220   -0.1230 C   0  0  0  0  0  0  0  0  0  0  0  0
    1.3360    0.8160   -0.5860 C   0  0  0  0  0  0  0  0  0  0  0  0
    0.1790    1.6770   -0.6190 N   0  0  0  0  0  0  0  0  0  0  0  0
   -1.0440    1.3920   -0.2970 C   0  0  0  0  0  0  0  0  0  0  0  0
   -2.2240    2.6740   -0.4520 Cl  0  0  0  0  0  0  0  0  0  0  0  0
   -1.5130    0.0700    0.1900 C   0  0  0  0  0  0  0  0  0  0  0  0
   -0.6210   -0.5120    1.0720 O   0  0  0  0  0  0  0  0  0  0  0  0
    0.3500   -1.2770    0.4820 C   0  0  2  0  0  0  0  0  0  0  0  0
    1.1200   -2.2320    1.8000 Cl  0  0  0  0  0  0  0  0  0  0  0  0
  1  2  1  0
  2  3  2  0
  2  9  1  0
  3  4  1  0
  4  5  2  0
  5  6  1  0
  5  7  1  0
  7  8  1  0
  8  9  1  0
  9 10  1  1
M  END
