
     RDKit          3D

  9  9  0  0  0  0  0  0  0  0999 V2000
    2.7810   -2.0190   -0.1030 Cl  0  0  0  0  0  0  0  0  0  0  0  0
    2.0500   -0.4400   -0.2750 C   0  0  0  0  0  0  0  0  0  0  0  0
    0.7590   -0.2300   -0.0850 C   0  0  0  0  0  0  0  0  0  0  0  0
   -0.0380   -1.2990    0.2620 O   0  0  0  0  0  0  0  0  0  0  0  0
   -1.4630   -1.1920    0.2460 C   0  0  0  0  0  0  0  0  0  0  0  0
   -1.9190    0.1390    0.3790 N   0  0  0  0  0  0  0  0  0  0  0  0
   -1.2170    1.1860    0.1730 C   0  0  0  0  0  0  0  0  0  0  0  0
    0.2020    1.1200   -0.2440 C   0  0  1  0  0  0  0  0  0  0  0  0
    1.1320    2.2490    0.7560 Cl  0  0  0  0  0  0  0  0  0  0  0  0
  1  2  1  0
  2  3  2  3
  3  4  1  0
  3  8  1  0
  4  5  1  0
  5  6  1  0
  6  7  2  0
  7  8  1  0
  8  9  1  1
M  END
