
     RDKit          3D

 20 21  0  0  0  0  0  0  0  0999 V2000
    4.4820    0.8070    1.1730 C   0  0  0  0  0  0  0  0  0  0  0  0
    3.7710    1.0470    2.3420 O   0  0  0  0  0  0  0  0  0  0  0  0
    2.0870    0.6730    2.1960 P   0  0  0  0  0  0  0  0  0  0  0  0
    1.3070    1.9950    1.3740 O   0  0  0  0  0  0  0  0  0  0  0  0
    1.8130   -0.9280    1.3200 C   0  0  0  0  0  0  0  0  0  0  0  0
    0.3950   -1.3160    1.2880 C   0  0  0  0  0  0  0  0  0  0  0  0
   -0.3270   -1.1410    0.1310 C   0  0  0  0  0  0  0  0  0  0  0  0
   -1.6760   -1.5070    0.0390 C   0  0  0  0  0  0  0  0  0  0  0  0
   -2.3850   -1.2650   -1.2060 C   0  0  0  0  0  0  0  0  0  0  0  0
   -3.1190   -2.2730   -1.7370 F   0  0  0  0  0  0  0  0  0  0  0  0
   -2.2850   -0.0740   -1.7660 C   0  0  0  0  0  0  0  0  0  0  0  0
   -2.8860    0.4300   -3.0040 C   0  0  0  0  0  0  0  0  0  0  0  0
   -2.5210    1.7020   -3.1810 C   0  0  0  0  0  0  0  0  0  0  0  0
   -1.6540    2.1360   -2.0700 C   0  0  0  0  0  0  0  0  0  0  0  0
   -1.5600    0.9830   -1.2610 O   0  0  0  0  0  0  0  0  0  0  0  0
   -2.2630   -2.0590    1.1730 C   0  0  0  0  0  0  0  0  0  0  0  0
   -3.4930   -2.3960    1.1000 O   0  0  0  0  0  0  0  0  0  0  0  0
   -1.5600   -2.2080    2.2420 O   0  0  0  0  0  0  0  0  0  0  0  0
   -0.2750   -1.8730    2.3670 C   0  0  0  0  0  0  0  0  0  0  0  0
    0.4220   -2.0460    3.5040 F   0  0  0  0  0  0  0  0  0  0  0  0
  1  2  1  0
  2  3  1  0
  3  4  1  0
  3  5  1  0
  5  6  1  0
  6  7  1  0
  6 19  2  0
  7  8  2  0
  8  9  1  0
  8 16  1  0
  9 10  1  0
  9 11  2  3
 11 12  1  0
 11 15  1  0
 12 13  2  0
 13 14  1  0
 14 15  1  0
 16 17  2  0
 16 18  1  0
 18 19  1  0
 19 20  1  0
M  END
