
     RDKit          3D

 20 21  0  0  0  0  0  0  0  0999 V2000
    4.1470   -0.8210    0.8400 C   0  0  0  0  0  0  0  0  0  0  0  0
    4.5620    0.3860    0.0480 C   0  0  0  0  0  0  0  0  0  0  0  0
    3.5140    1.4760    0.1820 C   0  0  1  0  0  0  0  0  0  0  0  0
    3.8630    2.5990   -0.5320 F   0  0  0  0  0  0  0  0  0  0  0  0
    2.1750    0.9150   -0.3140 C   0  0  0  0  0  0  0  0  0  0  0  0
    1.2370    1.9040   -0.1890 O   0  0  0  0  0  0  0  0  0  0  0  0
   -0.3300    1.4990   -0.6830 P   0  0  0  0  0  0  0  0  0  0  0  0
   -0.4310    0.4500   -2.1750 C   0  0  0  0  0  0  0  0  0  0  0  0
   -1.1140   -0.7540   -1.8940 O   0  0  0  0  0  0  0  0  0  0  0  0
   -2.1470   -0.9040   -1.0010 C   0  0  0  0  0  0  0  0  0  0  0  0
   -3.1410   -1.8080   -1.3000 C   0  0  0  0  0  0  0  0  0  0  0  0
   -3.1650   -2.5660   -2.4290 F   0  0  0  0  0  0  0  0  0  0  0  0
   -4.2170   -2.0080   -0.4350 C   0  0  0  0  0  0  0  0  0  0  0  0
   -4.3080   -1.3090    0.7300 C   0  0  0  0  0  0  0  0  0  0  0  0
   -3.3240   -0.3990    1.0470 C   0  0  0  0  0  0  0  0  0  0  0  0
   -3.4360    0.3440    2.3040 C   0  0  0  0  0  0  0  0  0  0  0  0
   -4.3970    0.1640    3.0730 O   0  0  0  0  0  0  0  0  0  0  0  0
   -2.4740    1.2710    2.6740 O   0  0  0  0  0  0  0  0  0  0  0  0
   -2.2430   -0.1930    0.1880 C   0  0  0  0  0  0  0  0  0  0  0  0
   -1.2920    0.7400    0.5780 O   0  0  0  0  0  0  0  0  0  0  0  0
  1  2  1  0
  2  3  1  0
  3  4  1  6
  3  5  1  0
  5  6  1  0
  6  7  1  0
  7  8  1  0
  7 20  1  0
  8  9  1  0
  9 10  1  0
 10 11  2  0
 10 19  1  0
 11 12  1  0
 11 13  1  0
 13 14  2  0
 14 15  1  0
 15 16  1  0
 15 19  2  0
 16 17  2  0
 16 18  1  0
 19 20  1  0
M  END
