
     RDKit          3D

 20 21  0  0  0  0  0  0  0  0999 V2000
   -7.1580   -0.5740   -0.9030 O   0  0  0  0  0  0  0  0  0  0  0  0
   -5.5490    0.1010   -0.9840 P   0  0  0  0  0  0  0  0  0  0  0  0
   -5.7210    1.8230   -1.0220 O   0  0  0  0  0  0  0  0  0  0  0  0
   -4.6200   -0.4960    0.4830 C   0  0  0  0  0  0  0  0  0  0  0  0
   -3.1510   -0.4950    0.2770 C   0  0  0  0  0  0  0  0  0  0  0  0
   -2.3050    0.4440    0.8130 C   0  0  0  0  0  0  0  0  0  0  0  0
   -0.9150    0.4250    0.6040 C   0  0  0  0  0  0  0  0  0  0  0  0
   -0.1730    1.4080    1.1820 F   0  0  0  0  0  0  0  0  0  0  0  0
   -0.3290   -0.5520   -0.1590 C   0  0  0  0  0  0  0  0  0  0  0  0
    0.9920   -0.6220   -0.3940 O   0  0  0  0  0  0  0  0  0  0  0  0
    2.0910    0.1060   -0.0410 C   0  0  1  0  0  0  0  0  0  0  0  0
    3.0220   -0.8410    0.7210 C   0  0  0  0  0  0  0  0  0  0  0  0
    3.8330   -0.1820    1.6130 O   0  0  0  0  0  0  0  0  0  0  0  0
    5.0080    0.2200    0.9830 C   0  0  0  0  0  0  0  0  0  0  0  0
    4.5970    1.3320    0.0170 C   0  0  0  0  0  0  0  0  0  0  0  0
    4.0320    0.6930   -1.1930 C   0  0  0  0  0  0  0  0  0  0  0  0
    2.6910    0.5160   -1.2360 O   0  0  0  0  0  0  0  0  0  0  0  0
   -1.2000   -1.5150   -0.7070 C   0  0  0  0  0  0  0  0  0  0  0  0
   -2.5470   -1.4720   -0.4870 C   0  0  0  0  0  0  0  0  0  0  0  0
   -3.3460   -2.4230   -1.0370 F   0  0  0  0  0  0  0  0  0  0  0  0
  1  2  1  0
  2  3  1  0
  2  4  1  0
  4  5  1  0
  5  6  2  0
  5 19  1  0
  6  7  1  0
  7  8  1  0
  7  9  2  0
  9 10  1  0
  9 18  1  0
 11 10  1  6
 11 12  1  0
 11 17  1  0
 12 13  1  0
 13 14  1  0
 14 15  1  0
 15 16  1  0
 16 17  1  0
 18 19  2  0
 19 20  1  0
M  END
