
     RDKit          3D

 19 20  0  0  0  0  0  0  0  0999 V2000
    5.5670    0.6930    0.4270 O   0  0  0  0  0  0  0  0  0  0  0  0
    4.7370   -0.2190    0.1560 C   0  0  0  0  0  0  0  0  0  0  0  0
    5.1200   -1.5500    0.0280 O   0  0  0  0  0  0  0  0  0  0  0  0
    3.3360    0.1320   -0.0280 C   0  0  0  0  0  0  0  0  0  0  0  0
    2.3950   -0.8220   -0.3230 C   0  0  0  0  0  0  0  0  0  0  0  0
    1.0520   -0.4470   -0.4940 C   0  0  0  0  0  0  0  0  0  0  0  0
    0.6290    0.8520   -0.3770 C   0  0  0  0  0  0  0  0  0  0  0  0
   -0.6860    1.2030   -0.5450 O   0  0  0  0  0  0  0  0  0  0  0  0
   -1.6750    0.2490   -0.8180 C   0  0  1  0  0  0  0  0  0  0  0  0
   -1.3820   -0.4520   -2.0000 F   0  0  0  0  0  0  0  0  0  0  0  0
   -1.7870   -0.6660    0.3790 C   0  0  0  0  0  0  0  0  0  0  0  0
   -3.0540   -0.3600    1.1950 C   0  0  0  0  0  0  0  0  0  0  0  0
   -4.2800   -0.6130    0.3290 C   0  0  0  0  0  0  0  0  0  0  0  0
   -4.1360    0.2040   -0.8210 O   0  0  0  0  0  0  0  0  0  0  0  0
   -2.9880    0.8820   -1.1080 C   0  0  0  0  0  0  0  0  0  0  0  0
   -3.0250    2.0120   -1.6050 O   0  0  0  0  0  0  0  0  0  0  0  0
    1.6000    1.8170   -0.0740 C   0  0  0  0  0  0  0  0  0  0  0  0
    2.9080    1.4370    0.0900 C   0  0  0  0  0  0  0  0  0  0  0  0
    3.8450    2.3680    0.3810 F   0  0  0  0  0  0  0  0  0  0  0  0
  1  2  2  0
  2  3  1  0
  2  4  1  0
  4  5  2  0
  4 18  1  0
  5  6  1  0
  6  7  2  0
  7  8  1  0
  7 17  1  0
  8  9  1  0
  9 10  1  6
  9 11  1  0
  9 15  1  0
 11 12  1  0
 12 13  1  0
 13 14  1  0
 14 15  1  0
 15 16  2  0
 17 18  2  0
 18 19  1  0
M  END
