
     RDKit          3D

 20 20  0  0  0  0  0  0  0  0999 V2000
   -5.7240   -1.4460   -0.0370 C   0  0  0  0  0  0  0  0  0  0  0  0
   -4.3970   -0.9860    0.0030 O   0  0  0  0  0  0  0  0  0  0  0  0
   -4.1400    0.3350    0.3410 C   0  0  0  0  0  0  0  0  0  0  0  0
   -5.1220    1.0750    0.6010 O   0  0  0  0  0  0  0  0  0  0  0  0
   -2.7710    0.8390    0.3900 C   0  0  0  0  0  0  0  0  0  0  0  0
   -2.4760    2.1430    0.7210 C   0  0  0  0  0  0  0  0  0  0  0  0
   -1.1710    2.5750    0.7550 C   0  0  0  0  0  0  0  0  0  0  0  0
   -0.1330    1.6850    0.4510 C   0  0  0  0  0  0  0  0  0  0  0  0
    1.1490    2.1360    0.4910 F   0  0  0  0  0  0  0  0  0  0  0  0
   -0.3740    0.3770    0.1150 C   0  0  0  0  0  0  0  0  0  0  0  0
    0.6170   -0.6060   -0.2110 C   0  0  0  0  0  0  0  0  0  0  0  0
    0.1860   -1.8800   -0.5260 F   0  0  0  0  0  0  0  0  0  0  0  0
    1.9000   -0.3890   -0.2330 C   0  0  0  0  0  0  0  0  0  0  0  0
    2.8390   -1.4830   -0.5860 C   0  0  0  0  0  0  0  0  0  0  0  0
    4.1120   -1.2190   -0.5960 C   0  0  0  0  0  0  0  0  0  0  0  0
    5.0110   -2.2140   -0.9190 O   0  0  0  0  0  0  0  0  0  0  0  0
    4.7100    0.4450   -0.1870 P   0  0  0  0  0  0  0  0  0  0  0  0
    4.2200    0.9190    1.3890 O   0  0  0  0  0  0  0  0  0  0  0  0
    6.4050    0.6220   -0.4390 O   0  0  0  0  0  0  0  0  0  0  0  0
   -1.7230    0.0060    0.1000 C   0  0  0  0  0  0  0  0  0  0  0  0
  1  2  1  0
  2  3  1  0
  3  4  2  0
  3  5  1  0
  5  6  2  0
  5 20  1  0
  6  7  1  0
  7  8  2  0
  8  9  1  0
  8 10  1  0
 10 11  1  0
 10 20  2  0
 11 12  1  0
 11 13  2  3
 13 14  1  0
 14 15  2  3
 15 16  1  0
 15 17  1  0
 17 18  1  0
 17 19  1  0
M  END
