
     RDKit          3D

 15 15  0  0  0  0  0  0  0  0999 V2000
   -3.1440    1.4690   -0.4800 C   0  0  0  0  0  0  0  0  0  0  0  0
   -1.9810    0.8680    0.3010 C   0  0  0  0  0  0  0  0  0  0  0  0
   -1.2380   -0.0640   -0.6290 C   0  0  2  0  0  0  0  0  0  0  0  0
   -0.7570    0.7840   -1.7900 C   0  0  0  0  0  0  0  0  0  0  0  0
   -2.0630   -1.0430   -1.1530 O   0  0  0  0  0  0  0  0  0  0  0  0
   -0.0620   -0.6880    0.0750 C   0  0  1  0  0  0  0  0  0  0  0  0
   -0.4960   -1.5810    1.1990 C   0  0  0  0  0  0  0  0  0  0  0  0
   -1.3030   -2.6700    0.6840 N   0  0  0  0  0  0  0  0  0  0  0  0
    0.6800   -1.4630   -0.8130 O   0  0  0  0  0  0  0  0  0  0  0  0
    1.9560   -1.3970   -0.2580 C   0  0  0  0  0  0  0  0  0  0  0  0
    2.0470    0.0720    0.0950 C   0  0  2  0  0  0  0  0  0  0  0  0
    2.4410    0.8060   -1.1670 C   0  0  0  0  0  0  0  0  0  0  0  0
    3.0040    0.3120    1.0740 O   0  0  0  0  0  0  0  0  0  0  0  0
    2.9140    1.6630    1.4070 C   0  0  0  0  0  0  0  0  0  0  0  0
    0.7660    0.3450    0.5120 O   0  0  0  0  0  0  0  0  0  0  0  0
  1  2  1  0
  2  3  1  0
  3  4  1  6
  3  5  1  0
  3  6  1  0
  6  7  1  1
  6  9  1  0
  6 15  1  0
  7  8  1  0
  9 10  1  0
 10 11  1  0
 11 12  1  6
 11 13  1  0
 11 15  1  0
 13 14  1  0
M  CHG  1   8   1
M  END
