
     RDKit          3D

 15 15  0  0  0  0  0  0  0  0999 V2000
    1.4420    2.5580   -0.6450 C   0  0  0  0  0  0  0  0  0  0  0  0
    2.2980    1.5770   -0.3240 C   0  0  0  0  0  0  0  0  0  0  0  0
    3.4680    2.0020    0.2780 O   0  0  0  0  0  0  0  0  0  0  0  0
    1.9500    0.2050   -0.6150 C   0  0  0  0  0  0  0  0  0  0  0  0
    2.7030   -0.8150   -0.3470 C   0  0  0  0  0  0  0  0  0  0  0  0
    4.0310   -0.8600    0.2860 C   0  0  0  0  0  0  0  0  0  0  0  0
    3.8930   -1.6450    1.4590 O   0  0  0  0  0  0  0  0  0  0  0  0
    0.7030   -0.0520   -1.2380 O   0  0  0  0  0  0  0  0  0  0  0  0
   -0.3510   -0.6260   -0.4840 C   0  0  2  0  0  0  0  0  0  0  0  0
   -1.5900   -0.8190   -1.3270 C   0  0  0  0  0  0  0  0  0  0  0  0
   -2.7180   -1.1720   -0.3640 C   0  0  0  0  0  0  0  0  0  0  0  0
   -3.0130    0.0990    0.4240 C   0  0  1  0  0  0  0  0  0  0  0  0
   -3.6240   -0.1930    1.6890 N   0  0  0  0  0  0  0  0  0  0  0  0
   -1.7420    0.8850    0.5680 C   0  0  0  0  0  0  0  0  0  0  0  0
   -0.6090    0.1050    0.6580 O   0  0  0  0  0  0  0  0  0  0  0  0
  1  2  2  0
  2  3  1  0
  2  4  1  0
  4  5  2  3
  4  8  1  0
  5  6  1  0
  6  7  1  0
  9  8  1  6
  9 10  1  0
  9 15  1  0
 10 11  1  0
 11 12  1  0
 12 13  1  1
 12 14  1  0
 14 15  1  0
M  CHG  1  13   1
M  END
