
     RDKit          3D

 19 18  0  0  0  0  0  0  0  0999 V2000
   -8.1830    1.0070    0.5890 C   0  0  0  0  0  0  0  0  0  0  0  0
   -7.0470    0.3160   -0.1800 C   0  0  0  0  0  0  0  0  0  0  0  0
   -5.7610    0.9560    0.2630 C   0  0  0  0  0  0  0  0  0  0  0  0
   -4.5660    0.3700   -0.4340 C   0  0  0  0  0  0  0  0  0  0  0  0
   -4.4690   -1.0820   -0.1380 C   0  0  0  0  0  0  0  0  0  0  0  0
   -3.2810   -1.7520   -0.7880 C   0  0  0  0  0  0  0  0  0  0  0  0
   -1.9690   -1.1420   -0.3310 C   0  0  0  0  0  0  0  0  0  0  0  0
   -0.8790   -1.9010   -1.0520 C   0  0  0  0  0  0  0  0  0  0  0  0
    0.5100   -1.4060   -0.6900 C   0  0  0  0  0  0  0  0  0  0  0  0
    0.6530    0.0440   -1.0520 C   0  0  0  0  0  0  0  0  0  0  0  0
    2.0430    0.5340   -0.7270 C   0  0  0  0  0  0  0  0  0  0  0  0
    2.3330    0.3990    0.7360 C   0  0  0  0  0  0  0  0  0  0  0  0
    3.6970    0.9270    1.0790 C   0  0  0  0  0  0  0  0  0  0  0  0
    4.7590    0.1860    0.3510 C   0  0  0  0  0  0  0  0  0  0  0  0
    6.1030    0.7690    0.7740 C   0  0  0  0  0  0  0  0  0  0  0  0
    7.1760    0.0150    0.0350 C   0  0  0  0  0  0  0  0  0  0  0  0
    8.5210    0.5440    0.4100 C   0  0  0  0  0  0  0  0  0  0  0  0
    9.5170    0.0040   -0.1350 O   0  0  0  0  0  0  0  0  0  0  0  0
    8.6620    1.5920    1.3260 O   0  0  0  0  0  0  0  0  0  0  0  0
  1  2  1  0
  2  3  1  0
  3  4  1  0
  4  5  1  0
  5  6  1  0
  6  7  1  0
  7  8  1  0
  8  9  1  0
  9 10  1  0
 10 11  1  0
 11 12  1  0
 12 13  1  0
 13 14  1  0
 14 15  1  0
 15 16  1  0
 16 17  1  0
 17 18  2  0
 17 19  1  0
M  END
