
     RDKit          3D

 15 15  0  0  0  0  0  0  0  0999 V2000
   -3.3560    2.6630    1.5030 C   0  0  0  0  0  0  0  0  0  0  0  0
   -2.7490    1.8190    0.5590 O   0  0  0  0  0  0  0  0  0  0  0  0
   -2.4630    0.4840    0.7590 C   0  0  0  0  0  0  0  0  0  0  0  0
   -2.7710   -0.0090    1.8720 O   0  0  0  0  0  0  0  0  0  0  0  0
   -1.8270   -0.3800   -0.2410 C   0  0  2  0  0  0  0  0  0  0  0  0
   -1.6080   -1.7770    0.1690 C   0  0  0  0  0  0  0  0  0  0  0  0
   -1.0820   -2.5350   -0.8260 O   0  0  0  0  0  0  0  0  0  0  0  0
   -0.0770   -2.0380   -1.5870 C   0  0  0  0  0  0  0  0  0  0  0  0
   -0.2000   -0.5810   -1.9300 C   0  0  0  0  0  0  0  0  0  0  0  0
   -0.4610    0.2090   -0.6800 C   0  0  2  0  0  0  0  0  0  0  0  0
    0.5490    0.0130    0.3590 C   0  0  0  0  0  0  0  0  0  0  0  0
    1.9030    0.5800    0.1270 C   0  0  1  0  0  0  0  0  0  0  0  0
    2.7070    0.2620    1.3790 N   0  0  0  0  0  0  0  0  0  0  0  0
    2.7600   -0.0130   -0.9400 C   0  0  0  0  0  0  0  0  0  0  0  0
    4.0670    0.5950   -0.8600 O   0  0  0  0  0  0  0  0  0  0  0  0
  1  2  1  0
  2  3  1  0
  3  4  2  0
  5  3  1  1
  5  6  1  0
  5 10  1  0
  6  7  1  0
  7  8  1  0
  8  9  1  0
  9 10  1  0
 10 11  1  1
 11 12  1  0
 12 13  1  1
 12 14  1  0
 14 15  1  0
M  CHG  1  13   1
M  END
