
     RDKit          3D

 20 22  0  0  0  0  0  0  0  0999 V2000
    5.3170   -0.1920   -0.7520 C   0  0  0  0  0  0  0  0  0  0  0  0
    3.8780   -0.4010   -0.4100 C   0  0  0  0  0  0  0  0  0  0  0  0
    3.4570   -1.6360    0.0530 C   0  0  0  0  0  0  0  0  0  0  0  0
    2.1200   -1.8580    0.3760 C   0  0  0  0  0  0  0  0  0  0  0  0
    1.1830   -0.8610    0.2460 C   0  0  0  0  0  0  0  0  0  0  0  0
    1.5860    0.3720   -0.2130 C   0  0  0  0  0  0  0  0  0  0  0  0
    0.5200    1.1320   -0.2450 O   0  0  0  0  0  0  0  0  0  0  0  0
   -0.5520    0.4740    0.1640 C   0  0  0  0  0  0  0  0  0  0  0  0
   -1.8710    0.8150    0.3090 C   0  0  0  0  0  0  0  0  0  0  0  0
   -2.3090    2.0860    0.0010 O   0  0  0  0  0  0  0  0  0  0  0  0
   -2.7670   -0.1150    0.7660 C   0  0  0  0  0  0  0  0  0  0  0  0
   -4.2130    0.1750    0.9160 C   0  0  0  0  0  0  0  0  0  0  0  0
   -4.8620    0.0800   -0.4540 C   0  0  0  0  0  0  0  0  0  0  0  0
   -6.2280    0.3500   -0.3850 O   0  0  0  0  0  0  0  0  0  0  0  0
   -2.3290   -1.3830    1.0770 C   0  0  0  0  0  0  0  0  0  0  0  0
   -3.1750   -2.2270    1.5000 O   0  0  0  0  0  0  0  0  0  0  0  0
   -1.0600   -1.6850    0.9290 O   0  0  0  0  0  0  0  0  0  0  0  0
   -0.1720   -0.8110    0.4890 C   0  0  0  0  0  0  0  0  0  0  0  0
    2.9280    0.5890   -0.5360 C   0  0  0  0  0  0  0  0  0  0  0  0
    3.3610    1.9350   -1.0370 C   0  0  0  0  0  0  0  0  0  0  0  0
  1  2  1  0
  2  3  2  0
  2 19  1  0
  3  4  1  0
  4  5  2  0
  5  6  1  0
  5 18  1  0
  6  7  1  0
  6 19  2  0
  7  8  1  0
  8  9  1  0
  8 18  2  0
  9 10  1  0
  9 11  2  0
 11 12  1  0
 11 15  1  0
 12 13  1  0
 13 14  1  0
 15 16  2  0
 15 17  1  0
 17 18  1  0
 19 20  1  0
M  END
