
     RDKit          3D

 16 17  0  0  0  0  0  0  0  0999 V2000
    4.9540    0.3740   -1.2360 C   0  0  0  0  0  0  0  0  0  0  0  0
    3.8670    0.0380   -0.3920 O   0  0  0  0  0  0  0  0  0  0  0  0
    2.5430    0.2690   -0.7300 C   0  0  0  0  0  0  0  0  0  0  0  0
    2.2980    0.8040   -1.8400 O   0  0  0  0  0  0  0  0  0  0  0  0
    1.4360   -0.0860    0.1570 C   0  0  0  0  0  0  0  0  0  0  0  0
    0.1290    0.1560   -0.2050 C   0  0  0  0  0  0  0  0  0  0  0  0
   -0.9220   -0.1740    0.6220 C   0  0  0  0  0  0  0  0  0  0  0  0
   -2.3160    0.0940    0.2150 C   0  0  0  0  0  0  0  0  0  0  0  0
   -3.4000   -0.1650    0.8940 C   0  0  0  0  0  0  0  0  0  0  0  0
   -4.5590    0.2740    0.0940 C   0  0  0  0  0  0  0  0  0  0  0  0
   -3.9710    0.8230   -1.1440 C   0  0  0  0  0  0  0  0  0  0  0  0
   -2.6650    0.7110   -1.0610 C   0  0  0  0  0  0  0  0  0  0  0  0
   -0.6900   -0.7600    1.8440 C   0  0  0  0  0  0  0  0  0  0  0  0
    0.6250   -1.0190    2.2420 C   0  0  0  0  0  0  0  0  0  0  0  0
    1.6460   -0.6740    1.3860 C   0  0  0  0  0  0  0  0  0  0  0  0
    2.9830   -0.9110    1.7340 O   0  0  0  0  0  0  0  0  0  0  0  0
  1  2  1  0
  2  3  1  0
  3  4  2  0
  3  5  1  0
  5  6  2  0
  5 15  1  0
  6  7  1  0
  7  8  1  0
  7 13  2  0
  8  9  2  0
  8 12  1  0
  9 10  1  0
 10 11  1  0
 11 12  2  0
 13 14  1  0
 14 15  2  0
 15 16  1  0
M  END
