
     RDKit          3D

 16 17  0  0  0  0  0  0  0  0999 V2000
   -2.9180    0.6390   -1.4330 C   0  0  0  0  0  0  0  0  0  0  0  0
   -2.2220    0.3290   -0.1240 C   0  0  1  0  0  0  0  0  0  0  0  0
   -2.3820    1.5520    0.8040 C   0  0  0  0  0  0  0  0  0  0  0  0
   -2.8240   -0.8190    0.6000 C   0  0  0  0  0  0  0  0  0  0  0  0
   -2.1820   -2.1080    0.1440 C   0  0  0  0  0  0  0  0  0  0  0  0
   -0.8260   -2.0250    0.6150 O   0  0  0  0  0  0  0  0  0  0  0  0
   -0.1070   -0.9760    0.0670 C   0  0  0  0  0  0  0  0  0  0  0  0
   -0.7700    0.1620   -0.2950 C   0  0  0  0  0  0  0  0  0  0  0  0
   -0.0430    1.2220   -0.8500 C   0  0  0  0  0  0  0  0  0  0  0  0
    1.3270    1.1140   -1.0280 C   0  0  0  0  0  0  0  0  0  0  0  0
    1.9930   -0.0310   -0.6630 C   0  0  0  0  0  0  0  0  0  0  0  0
    3.4520   -0.1040   -0.8650 C   0  0  0  0  0  0  0  0  0  0  0  0
    4.2170    0.0980    0.4340 C   0  0  0  0  0  0  0  0  0  0  0  0
    3.9170    1.3460    0.9690 O   0  0  0  0  0  0  0  0  0  0  0  0
    1.2830   -1.0720   -0.1180 C   0  0  0  0  0  0  0  0  0  0  0  0
    1.9050   -2.2480    0.2690 O   0  0  0  0  0  0  0  0  0  0  0  0
  2  1  1  6
  2  3  1  0
  2  4  1  0
  2  8  1  0
  4  5  1  0
  5  6  1  0
  6  7  1  0
  7  8  2  0
  7 15  1  0
  8  9  1  0
  9 10  2  0
 10 11  1  0
 11 12  1  0
 11 15  2  0
 12 13  1  0
 13 14  1  0
 15 16  1  0
M  END
