
     RDKit          3D

 16 17  0  0  0  0  0  0  0  0999 V2000
   -2.3530    2.4650   -1.2660 C   0  0  0  0  0  0  0  0  0  0  0  0
   -2.5580    1.1220   -0.9470 O   0  0  0  0  0  0  0  0  0  0  0  0
   -1.5530    0.2590   -0.5390 C   0  0  0  0  0  0  0  0  0  0  0  0
   -0.2360    0.6420   -0.4050 C   0  0  0  0  0  0  0  0  0  0  0  0
    0.7560   -0.2250    0.0020 C   0  0  0  0  0  0  0  0  0  0  0  0
    2.1550    0.2380    0.1290 C   0  0  0  0  0  0  0  0  0  0  0  0
    3.1570   -0.5340    0.5130 C   0  0  0  0  0  0  0  0  0  0  0  0
    4.4140    0.2520    0.5300 C   0  0  0  0  0  0  0  0  0  0  0  0
    3.9980    1.5880    0.1010 C   0  0  0  0  0  0  0  0  0  0  0  0
    2.6950    1.5470   -0.1210 C   0  0  0  0  0  0  0  0  0  0  0  0
    0.4190   -1.5300    0.2880 C   0  0  0  0  0  0  0  0  0  0  0  0
   -0.8970   -1.9550    0.1650 C   0  0  0  0  0  0  0  0  0  0  0  0
   -1.2860   -3.2580    0.4410 O   0  0  0  0  0  0  0  0  0  0  0  0
   -1.8600   -1.0540   -0.2460 C   0  0  0  0  0  0  0  0  0  0  0  0
   -3.1770   -1.4600   -0.3740 O   0  0  0  0  0  0  0  0  0  0  0  0
   -4.1120   -1.3860    0.6860 C   0  0  0  0  0  0  0  0  0  0  0  0
  1  2  1  0
  2  3  1  0
  3  4  2  0
  3 14  1  0
  4  5  1  0
  5  6  1  0
  5 11  2  0
  6  7  2  0
  6 10  1  0
  7  8  1  0
  8  9  1  0
  9 10  2  0
 11 12  1  0
 12 13  1  0
 12 14  2  0
 14 15  1  0
 15 16  1  0
M  END
