
     RDKit          3D

 16 17  0  0  0  0  0  0  0  0999 V2000
   -3.8830    1.7980    0.1240 C   0  0  0  0  0  0  0  0  0  0  0  0
   -2.5050    1.2530    0.1130 C   0  0  0  0  0  0  0  0  0  0  0  0
   -1.3960    2.0740    0.0890 C   0  0  0  0  0  0  0  0  0  0  0  0
   -0.1100    1.5750    0.0780 C   0  0  0  0  0  0  0  0  0  0  0  0
    0.0260    0.2030    0.0930 C   0  0  0  0  0  0  0  0  0  0  0  0
    1.3820   -0.3800    0.0820 C   0  0  0  0  0  0  0  0  0  0  0  0
    1.6850   -1.7230    0.0940 C   0  0  0  0  0  0  0  0  0  0  0  0
    3.0560   -1.8540    0.0780 C   0  0  0  0  0  0  0  0  0  0  0  0
    3.5440   -0.5430    0.0570 C   0  0  0  0  0  0  0  0  0  0  0  0
    4.9670   -0.1560    0.0340 C   0  0  0  0  0  0  0  0  0  0  0  0
    5.0710    1.2100    0.0160 O   0  0  0  0  0  0  0  0  0  0  0  0
    2.5180    0.2620    0.0600 O   0  0  0  0  0  0  0  0  0  0  0  0
   -1.0760   -0.6260    0.1170 C   0  0  0  0  0  0  0  0  0  0  0  0
   -2.3630   -0.1160    0.1270 C   0  0  0  0  0  0  0  0  0  0  0  0
   -3.5360   -1.0250    0.1530 C   0  0  0  0  0  0  0  0  0  0  0  0
   -3.0850   -2.3430    0.1620 O   0  0  0  0  0  0  0  0  0  0  0  0
  1  2  1  0
  2  3  2  0
  2 14  1  0
  3  4  1  0
  4  5  2  0
  5  6  1  0
  5 13  1  0
  6  7  2  0
  6 12  1  0
  7  8  1  0
  8  9  2  0
  9 10  1  0
  9 12  1  0
 10 11  1  0
 13 14  2  0
 14 15  1  0
 15 16  1  0
M  END
