
     RDKit          3D

 34 36  0  0  0  0  0  0  0  0999 V2000
    1.8450   -2.7120   -0.7540 C   0  0  0  0  0  0  0  0  0  0  0  0
    0.5110   -2.0370   -0.9250 C   0  0  2  0  0  0  0  0  0  0  0  0
    0.3210   -0.7010   -0.3650 C   0  0  0  0  0  0  0  0  0  0  0  0
    0.7390   -0.2050    0.9250 C   0  0  2  0  0  0  0  0  0  0  0  0
    1.6890    0.9540    0.7630 C   0  0  1  0  0  0  0  0  0  0  0  0
    2.0480    1.4240    2.0490 O   0  0  0  0  0  0  0  0  0  0  0  0
    2.9540    0.7600    0.0180 C   0  0  2  0  0  0  0  0  0  0  0  0
    3.7100    2.1200    0.0770 C   0  0  0  0  0  0  0  0  0  0  0  0
    4.8480    1.9280   -0.8740 C   0  0  0  0  0  0  0  0  0  0  0  0
    4.2530    1.1280   -1.9820 C   0  0  1  0  0  0  0  0  0  0  0  0
    5.0960   -0.0670   -2.2070 C   0  0  0  0  0  0  0  0  0  0  0  0
    5.6220   -0.2300   -3.3340 O   0  0  0  0  0  0  0  0  0  0  0  0
    5.3330   -1.0200   -1.2330 O   0  0  0  0  0  0  0  0  0  0  0  0
    2.8550    0.7060   -1.4930 C   0  0  0  0  0  0  0  0  0  0  0  0
    1.4660   -1.1950    1.8170 C   0  0  0  0  0  0  0  0  0  0  0  0
    1.1620   -1.0510    3.2970 C   0  0  0  0  0  0  0  0  0  0  0  0
   -0.2590   -1.3230    3.6340 C   0  0  0  0  0  0  0  0  0  0  0  0
   -1.1300   -0.6530    2.5990 C   0  0  0  0  0  0  0  0  0  0  0  0
   -0.3730    0.3870    1.8070 C   0  0  2  0  0  0  0  0  0  0  0  0
   -1.1330    1.5310    1.3800 C   0  0  0  0  0  0  0  0  0  0  0  0
   -2.1510    1.5950    0.3440 C   0  0  2  0  0  0  0  0  0  0  0  0
   -2.6340    3.0780    0.3700 C   0  0  0  0  0  0  0  0  0  0  0  0
   -3.6490    3.2550   -0.6230 N   0  0  0  0  0  0  0  0  0  0  0  0
   -3.3280    4.6590   -1.5810 S   0  0  2  0  0  0  0  0  0  0  0  0
   -4.6170    5.1960   -2.1090 O   0  0  0  0  0  0  0  0  0  0  0  0
   -2.4450    4.3460   -2.7450 O   0  0  0  0  0  0  0  0  0  0  0  0
   -3.4060    0.7980    0.5340 C   0  0  0  0  0  0  0  0  0  0  0  0
   -3.6830   -0.1500   -0.6460 C   0  0  0  0  0  0  0  0  0  0  0  0
   -3.8510   -1.5330   -0.2030 C   0  0  0  0  0  0  0  0  0  0  0  0
   -3.4500   -2.6460   -0.7610 C   0  0  0  0  0  0  0  0  0  0  0  0
   -2.7040   -2.6450   -2.0330 C   0  0  0  0  0  0  0  0  0  0  0  0
   -1.3860   -3.3810   -1.9410 C   0  0  0  0  0  0  0  0  0  0  0  0
   -0.6060   -3.0260   -0.7080 C   0  0  1  0  0  0  0  0  0  0  0  0
   -0.0490   -4.1940   -0.2000 O   0  0  0  0  0  0  0  0  0  0  0  0
  2  1  1  1
  2  3  1  0
  2 33  1  0
  4  3  1  6
  4  5  1  0
  4 15  1  0
  4 19  1  0
  5  6  1  1
  5  7  1  0
  7  8  1  6
  7 14  1  0
  8  9  1  0
  9 10  1  0
 10 11  1  1
 10 14  1  0
 11 12  2  0
 11 13  1  0
 15 16  1  0
 16 17  1  0
 17 18  1  0
 19 18  1  6
 19 20  1  0
 20 21  1  0
 21 22  1  1
 21 27  1  0
 22 23  1  0
 24 23  1  6
 24 25  2  0
 24 26  2  0
 27 28  1  0
 28 29  1  0
 29 30  2  0
 30 31  1  0
 31 32  1  0
 32 33  1  0
 33 34  1  6
M  CHG  1  23   1
M  END
