
     RDKit          3D

 34 37  0  0  0  0  0  0  0  0999 V2000
   -4.5980    3.6270   -0.4010 C   0  0  0  0  0  0  0  0  0  0  0  0
   -3.3090    3.8040   -1.2170 C   0  0  0  0  0  0  0  0  0  0  0  0
   -2.9850    2.4220   -1.6980 C   0  0  0  0  0  0  0  0  0  0  0  0
   -3.2330    1.7620   -3.2960 S   0  0  0  0  0  0  0  0  0  0  0  0
   -2.6240    0.1860   -2.9820 C   0  0  0  0  0  0  0  0  0  0  0  0
   -2.5690   -0.9350   -3.9900 C   0  0  0  0  0  0  0  0  0  0  0  0
   -3.6990   -1.8840   -3.9420 C   0  0  1  0  0  0  0  0  0  0  0  0
   -3.9020   -2.6380   -2.6570 C   0  0  0  0  0  0  0  0  0  0  0  0
   -4.8820   -1.1250   -4.1270 O   0  0  0  0  0  0  0  0  0  0  0  0
   -2.2580    0.2180   -1.6910 C   0  0  0  0  0  0  0  0  0  0  0  0
   -2.4350    1.3730   -1.0010 C   0  0  0  0  0  0  0  0  0  0  0  0
   -2.0150    1.3970    0.4210 C   0  0  0  0  0  0  0  0  0  0  0  0
   -0.6890    0.7570    0.7250 C   0  0  0  0  0  0  0  0  0  0  0  0
   -0.3510   -0.2370   -0.3010 C   0  0  1  0  0  0  0  0  0  0  0  0
    0.7700   -1.1750   -0.1140 C   0  0  1  0  0  0  0  0  0  0  0  0
    0.7310   -1.9440   -1.3470 O   0  0  0  0  0  0  0  0  0  0  0  0
    2.0660   -0.4150   -0.3540 C   0  0  0  0  0  0  0  0  0  0  0  0
    2.7240   -0.0230    0.9500 C   0  0  2  0  0  0  0  0  0  0  0  0
    3.8540    0.8520    0.7160 N   0  0  0  0  0  0  0  0  0  0  0  0
    4.0110    2.1520    1.2610 C   0  0  0  0  0  0  0  0  0  0  0  0
    3.1080    2.5700    1.9990 O   0  0  0  0  0  0  0  0  0  0  0  0
    5.1130    2.9230    0.9900 O   0  0  0  0  0  0  0  0  0  0  0  0
    5.3700    4.1920    1.4520 C   0  0  0  0  0  0  0  0  0  0  0  0
    4.4210    5.2670    1.0500 C   0  0  0  0  0  0  0  0  0  0  0  0
    3.1180    5.0550    1.4680 O   0  0  0  0  0  0  0  0  0  0  0  0
    3.1460   -1.3250    1.5920 C   0  0  0  0  0  0  0  0  0  0  0  0
    2.3500   -2.4960    1.1280 C   0  0  1  0  0  0  0  0  0  0  0  0
    2.5180   -3.6930    2.0210 C   0  0  0  0  0  0  0  0  0  0  0  0
    1.2190   -4.3070    2.4420 C   0  0  0  0  0  0  0  0  0  0  0  0
    0.2780   -3.3140    3.0740 C   0  0  0  0  0  0  0  0  0  0  0  0
    0.1620   -2.0260    2.2420 C   0  0  0  0  0  0  0  0  0  0  0  0
    0.8500   -2.1640    0.9330 C   0  0  1  0  0  0  0  0  0  0  0  0
   -1.6280   -0.8340   -0.8330 C   0  0  1  0  0  0  0  0  0  0  0  0
   -2.5890   -1.0610    0.1500 O   0  0  0  0  0  0  0  0  0  0  0  0
  1  2  1  0
  2  3  1  0
  3  4  1  0
  3 11  2  0
  4  5  1  0
  5  6  1  0
  5 10  2  0
  6  7  1  0
  7  8  1  1
  7  9  1  0
 10 11  1  0
 10 33  1  0
 11 12  1  0
 12 13  1  0
 14 13  1  1
 14 15  1  0
 14 33  1  0
 15 16  1  6
 15 17  1  0
 15 32  1  0
 17 18  1  0
 18 19  1  6
 18 26  1  0
 19 20  1  0
 20 21  2  0
 20 22  1  0
 22 23  1  0
 23 24  1  0
 24 25  1  0
 27 26  1  1
 27 28  1  0
 27 32  1  0
 28 29  1  0
 29 30  1  0
 30 31  1  0
 32 31  1  1
 33 34  1  1
M  END
