
     RDKit          3D

 35 39  0  0  0  0  0  0  0  0999 V2000
   -4.6500    3.6590   -1.9150 N   0  0  0  0  0  0  0  0  0  0  0  0
   -4.3840    4.1250   -0.5770 C   0  0  0  0  0  0  0  0  0  0  0  0
   -4.5230    3.0960    0.5080 C   0  0  0  0  0  0  0  0  0  0  0  0
   -3.6290    1.9130    0.3140 C   0  0  0  0  0  0  0  0  0  0  0  0
   -2.4310    2.0990   -0.2350 C   0  0  0  0  0  0  0  0  0  0  0  0
   -1.5040    1.0670   -0.2960 C   0  0  0  0  0  0  0  0  0  0  0  0
   -1.8510   -0.2020    0.2480 C   0  0  0  0  0  0  0  0  0  0  0  0
   -0.9240   -1.2380   -0.0210 N   0  0  0  0  0  0  0  0  0  0  0  0
    0.4470   -0.9640   -0.1090 C   0  0  0  0  0  0  0  0  0  0  0  0
    0.8460    0.2650    0.0790 O   0  0  0  0  0  0  0  0  0  0  0  0
    1.4840   -1.9020   -0.4070 C   0  0  0  0  0  0  0  0  0  0  0  0
    2.8290   -1.6490   -0.3470 C   0  0  0  0  0  0  0  0  0  0  0  0
    3.3500   -0.4080    0.0590 C   0  0  0  0  0  0  0  0  0  0  0  0
    2.8450    0.0070    1.3520 C   0  0  0  0  0  0  0  0  0  0  0  0
    3.1620    1.1480    1.9600 C   0  0  0  0  0  0  0  0  0  0  0  0
    4.0280    2.0260    1.3500 C   0  0  0  0  0  0  0  0  0  0  0  0
    4.5450    1.6910    0.1190 C   0  0  0  0  0  0  0  0  0  0  0  0
    5.4430    2.4980   -0.4750 N   0  0  0  0  0  0  0  0  0  0  0  0
    6.0310    2.2390   -1.6230 C   0  0  0  0  0  0  0  0  0  0  0  0
    6.8830    3.0000   -2.1820 O   0  0  0  0  0  0  0  0  0  0  0  0
    5.7050    1.0540   -2.2620 C   0  0  0  0  0  0  0  0  0  0  0  0
    6.2810    0.7550   -3.4870 C   0  0  0  0  0  0  0  0  0  0  0  0
    5.9610   -0.3700   -4.1630 C   0  0  0  0  0  0  0  0  0  0  0  0
    5.0310   -1.2600   -3.6250 C   0  0  0  0  0  0  0  0  0  0  0  0
    4.4460   -0.9780   -2.3960 C   0  0  0  0  0  0  0  0  0  0  0  0
    4.7750    0.1450   -1.7210 C   0  0  0  0  0  0  0  0  0  0  0  0
    4.2070    0.4910   -0.5180 C   0  0  0  0  0  0  0  0  0  0  0  0
   -3.0570   -0.4180    0.8100 C   0  0  0  0  0  0  0  0  0  0  0  0
   -3.4400   -1.5820    1.6310 C   0  0  1  0  0  0  0  0  0  0  0  0
   -4.6050   -2.3790    1.0810 C   0  0  0  0  0  0  0  0  0  0  0  0
   -4.1160   -3.8330    1.2270 C   0  0  0  0  0  0  0  0  0  0  0  0
   -2.7570   -3.8390    1.8390 C   0  0  0  0  0  0  0  0  0  0  0  0
   -2.5620   -2.4220    2.4030 C   0  0  1  0  0  0  0  0  0  0  0  0
   -1.2280   -2.0570    2.6600 N   0  0  0  0  0  0  0  0  0  0  0  0
   -3.9640    0.6770    0.8350 C   0  0  0  0  0  0  0  0  0  0  0  0
  1  2  1  0
  2  3  1  0
  3  4  1  0
  4  5  2  0
  4 35  1  0
  5  6  1  0
  6  7  2  0
  7  8  1  0
  7 28  1  0
  8  9  1  0
  9 10  2  0
  9 11  1  0
 11 12  2  3
 12 13  1  0
 13 14  2  0
 13 27  1  0
 14 15  1  0
 15 16  2  0
 16 17  1  0
 17 18  1  0
 17 27  2  0
 18 19  1  0
 19 20  2  0
 19 21  1  0
 21 22  2  0
 21 26  1  0
 22 23  1  0
 23 24  2  0
 24 25  1  0
 25 26  2  0
 26 27  1  0
 29 28  1  6
 28 35  2  0
 29 30  1  0
 29 33  1  0
 30 31  1  0
 31 32  1  0
 32 33  1  0
 33 34  1  6
M  CHG  1  34   1
M  END
