
     RDKit          3D

 35 39  0  0  0  0  0  0  0  0999 V2000
   -7.7950    2.2360    1.0660 C   0  0  0  0  0  0  0  0  0  0  0  0
   -6.8560    2.5610   -0.0370 C   0  0  0  0  0  0  0  0  0  0  0  0
   -5.4040    2.2540    0.2120 C   0  0  0  0  0  0  0  0  0  0  0  0
   -5.2130    0.8480    0.4510 C   0  0  0  0  0  0  0  0  0  0  0  0
   -4.5340    0.1260   -0.3770 C   0  0  0  0  0  0  0  0  0  0  0  0
   -3.2450    0.4460   -0.9720 C   0  0  0  0  0  0  0  0  0  0  0  0
   -2.4300   -0.8070   -0.4420 C   0  0  1  0  0  0  0  0  0  0  0  0
   -1.0060   -0.6200   -0.5460 C   0  0  0  0  0  0  0  0  0  0  0  0
   -0.4900    0.5140   -1.1390 C   0  0  0  0  0  0  0  0  0  0  0  0
    0.8960    0.7190   -1.2600 C   0  0  0  0  0  0  0  0  0  0  0  0
    1.8120   -0.1850   -0.8040 C   0  0  0  0  0  0  0  0  0  0  0  0
    3.2150   -0.0280   -0.9360 N   0  0  0  0  0  0  0  0  0  0  0  0
    3.9260    0.7730   -1.8320 C   0  0  0  0  0  0  0  0  0  0  0  0
    3.1530    1.4140   -2.6670 O   0  0  0  0  0  0  0  0  0  0  0  0
    5.3520    0.9790   -1.9370 C   0  0  0  0  0  0  0  0  0  0  0  0
    6.4040    0.6910   -1.3130 C   0  0  0  0  0  0  0  0  0  0  0  0
    7.8320    1.0660   -1.7640 C   0  0  0  0  0  0  0  0  0  0  0  0
    8.3980   -0.3750   -1.5500 C   0  0  0  0  0  0  0  0  0  0  0  0
    7.8550   -0.6520   -0.1790 C   0  0  0  0  0  0  0  0  0  0  0  0
    8.3640   -1.3770    0.8620 C   0  0  0  0  0  0  0  0  0  0  0  0
    7.7160   -1.3440    2.0600 C   0  0  0  0  0  0  0  0  0  0  0  0
    6.5660   -0.6050    2.2630 C   0  0  0  0  0  0  0  0  0  0  0  0
    6.0620    0.1220    1.2060 C   0  0  0  0  0  0  0  0  0  0  0  0
    4.9150    1.0530    1.4120 C   0  0  0  0  0  0  0  0  0  0  0  0
    6.6870    0.1040   -0.0160 C   0  0  0  0  0  0  0  0  0  0  0  0
    1.2920   -1.3280   -0.2080 C   0  0  0  0  0  0  0  0  0  0  0  0
   -0.0610   -1.5180   -0.0940 C   0  0  0  0  0  0  0  0  0  0  0  0
   -0.4910   -2.7100    0.4990 N   0  0  0  0  0  0  0  0  0  0  0  0
   -3.0170   -1.1790    0.8810 C   0  0  0  0  0  0  0  0  0  0  0  0
   -4.4100   -1.8260    0.7650 C   0  0  1  0  0  0  0  0  0  0  0  0
   -5.3490   -1.2120    1.7450 C   0  0  0  0  0  0  0  0  0  0  0  0
   -5.8520   -1.9220    2.6820 O   0  0  0  0  0  0  0  0  0  0  0  0
   -5.6980    0.1640    1.6560 N   0  0  0  0  0  0  0  0  0  0  0  0
   -5.0220   -1.2910   -0.5910 C   0  0  1  0  0  0  0  0  0  0  0  0
   -6.4430   -1.4270   -0.5710 N   0  0  0  0  0  0  0  0  0  0  0  0
  1  2  1  0
  2  3  1  0
  3  4  1  0
  4  5  2  0
  4 33  1  0
  5  6  1  0
  5 34  1  0
  6  7  1  0
  7  8  1  1
  7 29  1  0
  8  9  2  0
  8 27  1  0
  9 10  1  0
 10 11  2  0
 11 12  1  0
 11 26  1  0
 12 13  1  0
 13 14  2  0
 13 15  1  0
 15 16  2  3
 16 17  1  0
 16 25  1  0
 17 18  1  0
 18 19  1  0
 19 20  2  0
 19 25  1  0
 20 21  1  0
 21 22  2  0
 22 23  1  0
 23 24  1  0
 23 25  2  0
 26 27  2  0
 27 28  1  0
 30 29  1  1
 30 31  1  0
 30 34  1  0
 31 32  2  0
 31 33  1  0
 34 35  1  1
M  CHG  1  35   1
M  END
