
     RDKit          3D

 34 36  0  0  0  0  0  0  0  0999 V2000
   -3.9560   -3.1570   -2.0790 C   0  0  0  0  0  0  0  0  0  0  0  0
   -3.1590   -2.1200   -1.2890 C   0  0  0  0  0  0  0  0  0  0  0  0
   -4.0380   -0.9610   -0.8200 C   0  0  1  0  0  0  0  0  0  0  0  0
   -4.6100   -0.3090   -2.0340 C   0  0  0  0  0  0  0  0  0  0  0  0
   -5.2310   -1.5370   -0.0660 C   0  0  0  0  0  0  0  0  0  0  0  0
   -4.9000   -2.2920    1.1560 C   0  0  0  0  0  0  0  0  0  0  0  0
   -3.5720   -2.0550    1.7360 C   0  0  0  0  0  0  0  0  0  0  0  0
   -2.6770   -1.0420    1.1880 C   0  0  0  0  0  0  0  0  0  0  0  0
   -3.2690   -0.1040    0.1190 C   0  0  2  0  0  0  0  0  0  0  0  0
   -4.0250    0.9200    0.8680 C   0  0  0  0  0  0  0  0  0  0  0  0
   -4.7350    2.0340    0.2490 C   0  0  2  0  0  0  0  0  0  0  0  0
   -3.9020    3.0110   -0.5550 C   0  0  0  0  0  0  0  0  0  0  0  0
   -5.2870    2.9640    1.3990 C   0  0  0  0  0  0  0  0  0  0  0  0
   -5.8660    1.7790   -0.4870 O   0  0  0  0  0  0  0  0  0  0  0  0
   -2.0090    0.4680   -0.4890 C   0  0  0  0  0  0  0  0  0  0  0  0
   -1.6650    0.2990   -1.6810 O   0  0  0  0  0  0  0  0  0  0  0  0
   -1.1230    1.2540    0.2920 N   0  0  0  0  0  0  0  0  0  0  0  0
    0.0670    1.8050   -0.2550 C   0  0  0  0  0  0  0  0  0  0  0  0
    1.0440    0.7970   -0.7870 C   0  0  2  0  0  0  0  0  0  0  0  0
    1.6350   -0.0720    0.2910 C   0  0  0  0  0  0  0  0  0  0  0  0
    3.0240    0.4690    0.5700 C   0  0  1  0  0  0  0  0  0  0  0  0
    3.1090    0.7170    1.9400 O   0  0  0  0  0  0  0  0  0  0  0  0
    4.0680   -0.4980    0.0960 C   0  0  0  0  0  0  0  0  0  0  0  0
    5.4300    0.1020   -0.0660 C   0  0  2  0  0  0  0  0  0  0  0  0
    6.4330   -0.5700    0.6640 O   0  0  0  0  0  0  0  0  0  0  0  0
    7.4840   -1.2160    0.0750 C   0  0  0  0  0  0  0  0  0  0  0  0
    7.5560   -1.2050   -1.1800 O   0  0  0  0  0  0  0  0  0  0  0  0
    8.5500   -1.9300    0.8190 C   0  0  1  0  0  0  0  0  0  0  0  0
    9.5590   -2.5630   -0.0870 C   0  0  0  0  0  0  0  0  0  0  0  0
    9.4490   -0.7160    1.8410 S   0  0  0  0  0  0  0  0  0  0  0  0
    5.3710    1.5720    0.2120 C   0  0  0  0  0  0  0  0  0  0  0  0
    4.3450    2.1670   -0.7370 C   0  0  0  0  0  0  0  0  0  0  0  0
    2.9820    1.7480   -0.2320 C   0  0  1  0  0  0  0  0  0  0  0  0
    2.1540    1.4630   -1.2920 O   0  0  0  0  0  0  0  0  0  0  0  0
  1  2  1  0
  2  3  1  0
  3  4  1  6
  3  5  1  0
  3  9  1  0
  5  6  1  0
  6  7  1  0
  7  8  1  0
  8  9  1  0
  9 10  1  1
  9 15  1  0
 10 11  1  0
 11 12  1  6
 11 13  1  0
 11 14  1  0
 15 16  2  0
 15 17  1  0
 17 18  1  0
 19 18  1  1
 19 20  1  0
 19 34  1  0
 20 21  1  0
 21 22  1  1
 21 23  1  0
 21 33  1  0
 23 24  1  0
 24 25  1  1
 24 31  1  0
 25 26  1  0
 26 27  2  0
 26 28  1  0
 28 29  1  6
 28 30  1  0
 31 32  1  0
 33 32  1  6
 33 34  1  0
M  END
