
     RDKit          3D

 35 39  0  0  0  0  0  0  0  0999 V2000
    1.1880   -2.6770    0.1190 C   0  0  0  0  0  0  0  0  0  0  0  0
   -0.2500   -2.3800    0.0050 C   0  0  0  0  0  0  0  0  0  0  0  0
   -1.1580   -3.3310   -0.2950 C   0  0  0  0  0  0  0  0  0  0  0  0
   -0.8190   -4.7560   -0.5390 C   0  0  0  0  0  0  0  0  0  0  0  0
   -2.4890   -2.6960   -0.3320 C   0  0  2  0  0  0  0  0  0  0  0  0
   -2.9560   -2.7730   -1.7160 N   0  0  0  0  0  0  0  0  0  0  0  0
   -2.2150   -1.2480   -0.0120 C   0  0  0  0  0  0  0  0  0  0  0  0
   -0.8850   -1.1050    0.1810 C   0  0  0  0  0  0  0  0  0  0  0  0
   -0.3030    0.2010    0.5190 C   0  0  2  0  0  0  0  0  0  0  0  0
    1.1550    0.2730    0.6550 C   0  0  0  0  0  0  0  0  0  0  0  0
    1.8180   -0.1930    1.7800 C   0  0  0  0  0  0  0  0  0  0  0  0
    3.1950   -0.1210    1.9500 C   0  0  0  0  0  0  0  0  0  0  0  0
    3.9090    0.4430    0.9420 C   0  0  0  0  0  0  0  0  0  0  0  0
    5.2600    0.4760    1.1890 C   0  0  0  0  0  0  0  0  0  0  0  0
    6.1220    1.0330    0.2310 C   0  0  0  0  0  0  0  0  0  0  0  0
    7.4990    1.0490    0.5190 N   0  0  0  0  0  0  0  0  0  0  0  0
    8.5370    1.5550   -0.2890 C   0  0  0  0  0  0  0  0  0  0  0  0
    9.8970    1.5120    0.1160 N   0  0  0  0  0  0  0  0  0  0  0  0
    8.2820    2.0620   -1.3990 O   0  0  0  0  0  0  0  0  0  0  0  0
    5.5400    1.5150   -0.9080 C   0  0  0  0  0  0  0  0  0  0  0  0
    4.1460    1.4710   -1.1400 C   0  0  0  0  0  0  0  0  0  0  0  0
    3.3160    0.9240   -0.1960 C   0  0  0  0  0  0  0  0  0  0  0  0
    1.9530    0.8440   -0.3470 C   0  0  0  0  0  0  0  0  0  0  0  0
    5.4460   -0.1330    2.5000 C   0  0  0  0  0  0  0  0  0  0  0  0
    6.5360   -0.2950    3.0920 O   0  0  0  0  0  0  0  0  0  0  0  0
    4.1350   -0.4950    2.9490 N   0  0  0  0  0  0  0  0  0  0  0  0
   -0.9870    0.7620    1.7800 C   0  0  0  0  0  0  0  0  0  0  0  0
   -2.0890    1.6690    1.3130 C   0  0  0  0  0  0  0  0  0  0  0  0
   -3.1940    0.9660    0.6480 C   0  0  0  0  0  0  0  0  0  0  0  0
   -4.3250    1.7040    0.6220 C   0  0  0  0  0  0  0  0  0  0  0  0
   -5.5940    1.2740    0.0270 C   0  0  0  0  0  0  0  0  0  0  0  0
   -6.0590    2.1780   -1.0940 C   0  0  2  0  0  0  0  0  0  0  0  0
   -7.3670    1.6730   -1.6530 C   0  0  0  0  0  0  0  0  0  0  0  0
   -5.0720    2.2960   -2.2100 C   0  0  0  0  0  0  0  0  0  0  0  0
   -3.3570   -0.3310    0.0130 C   0  0  0  0  0  0  0  0  0  0  0  0
  1  2  1  0
  2  3  2  0
  2  8  1  0
  3  4  1  0
  3  5  1  0
  5  6  1  6
  5  7  1  0
  7  8  2  0
  7 35  1  0
  8  9  1  0
  9 10  1  1
  9 27  1  0
 10 11  2  0
 10 23  1  0
 11 12  1  0
 12 13  2  0
 12 26  1  0
 13 14  1  0
 13 22  1  0
 14 15  2  0
 14 24  1  0
 15 16  1  0
 15 20  1  0
 16 17  1  0
 17 18  1  0
 17 19  2  0
 20 21  2  0
 21 22  1  0
 22 23  2  0
 24 25  2  0
 24 26  1  0
 27 28  1  0
 28 29  1  0
 29 30  2  3
 29 35  1  0
 30 31  1  0
 31 32  1  0
 32 33  1  6
 32 34  1  0
M  CHG  1   6   1
M  END
