
     RDKit          3D

 35 39  0  0  0  0  0  0  0  0999 V2000
    0.2900    5.5620   -1.4350 C   0  0  0  0  0  0  0  0  0  0  0  0
   -0.7950    4.5540   -1.0930 C   0  0  0  0  0  0  0  0  0  0  0  0
   -0.1560    3.2410   -0.6240 C   0  0  0  0  0  0  0  0  0  0  0  0
   -1.2890    2.3080   -0.3090 C   0  0  2  0  0  0  0  0  0  0  0  0
   -2.1650    2.8490    0.7510 C   0  0  0  0  0  0  0  0  0  0  0  0
   -2.6490    1.8700    1.7640 C   0  0  0  0  0  0  0  0  0  0  0  0
   -3.0010    0.6020    1.0570 C   0  0  0  0  0  0  0  0  0  0  0  0
   -4.1260    0.0290    1.3220 C   0  0  0  0  0  0  0  0  0  0  0  0
   -5.2760    0.2840    2.2120 C   0  0  0  0  0  0  0  0  0  0  0  0
   -5.8990   -0.8650    2.4030 C   0  0  0  0  0  0  0  0  0  0  0  0
   -5.1960   -1.9740    1.6450 C   0  0  0  0  0  0  0  0  0  0  0  0
   -4.5210   -1.1970    0.5700 C   0  0  1  0  0  0  0  0  0  0  0  0
   -5.6660   -0.6970   -0.3500 C   0  0  0  0  0  0  0  0  0  0  0  0
   -3.4640   -1.8340   -0.2180 C   0  0  2  0  0  0  0  0  0  0  0  0
   -3.1270   -3.2710    0.1530 C   0  0  0  0  0  0  0  0  0  0  0  0
   -4.2380   -4.1770   -0.0080 N   0  0  0  0  0  0  0  0  0  0  0  0
   -2.2210   -1.0610   -0.4370 C   0  0  0  0  0  0  0  0  0  0  0  0
   -2.0020    0.0610    0.1500 C   0  0  0  0  0  0  0  0  0  0  0  0
   -0.7820    0.8960   -0.0120 C   0  0  1  0  0  0  0  0  0  0  0  0
    0.1090    0.4220   -1.0030 N   0  0  0  0  0  0  0  0  0  0  0  0
    1.4700    0.0990   -0.6070 C   0  0  0  0  0  0  0  0  0  0  0  0
    1.7800    0.2570    0.5890 O   0  0  0  0  0  0  0  0  0  0  0  0
    2.4070   -0.3750   -1.5320 N   0  0  0  0  0  0  0  0  0  0  0  0
    3.7690   -0.7310   -1.2900 C   0  0  0  0  0  0  0  0  0  0  0  0
    4.3220   -0.6340   -0.0340 C   0  0  0  0  0  0  0  0  0  0  0  0
    5.6590   -0.9860    0.1920 C   0  0  0  0  0  0  0  0  0  0  0  0
    6.2250   -0.8910    1.4520 C   0  0  0  0  0  0  0  0  0  0  0  0
    7.5250   -1.2200    1.7360 C   0  0  0  0  0  0  0  0  0  0  0  0
    8.0850   -1.1140    3.0390 N   0  0  0  0  0  0  0  0  0  0  0  0
    8.3140   -1.6760    0.6790 C   0  0  0  0  0  0  0  0  0  0  0  0
    7.7770   -1.7820   -0.5940 C   0  0  0  0  0  0  0  0  0  0  0  0
    6.4660   -1.4390   -0.8270 C   0  0  0  0  0  0  0  0  0  0  0  0
    5.8780   -1.5220   -2.0610 C   0  0  0  0  0  0  0  0  0  0  0  0
    4.5640   -1.1860   -2.3270 C   0  0  0  0  0  0  0  0  0  0  0  0
    4.0480   -1.2970   -3.5980 O   0  0  0  0  0  0  0  0  0  0  0  0
  1  2  1  0
  2  3  1  0
  4  3  1  1
  4  5  1  0
  4 19  1  0
  5  6  1  0
  6  7  1  0
  7  8  2  0
  7 18  1  0
  8  9  1  0
  8 12  1  0
  9 10  2  0
 10 11  1  0
 11 12  1  0
 12 13  1  6
 12 14  1  0
 14 15  1  1
 14 17  1  0
 15 16  1  0
 17 18  2  0
 18 19  1  0
 19 20  1  6
 20 21  1  0
 21 22  2  0
 21 23  1  0
 23 24  1  0
 24 25  2  0
 24 34  1  0
 25 26  1  0
 26 27  2  0
 26 32  1  0
 27 28  1  0
 28 29  1  0
 28 30  2  0
 30 31  1  0
 31 32  2  0
 32 33  1  0
 33 34  2  0
 34 35  1  0
M  CHG  1  16   1
M  END
