
     RDKit          3D

 34 36  0  0  0  0  0  0  0  0999 V2000
    7.5270   -1.6480   -2.9780 C   0  0  0  0  0  0  0  0  0  0  0  0
    6.9330   -0.8040   -2.0330 O   0  0  0  0  0  0  0  0  0  0  0  0
    6.6160   -1.1660   -0.7320 C   0  0  0  0  0  0  0  0  0  0  0  0
    6.8770   -2.3360   -0.3610 O   0  0  0  0  0  0  0  0  0  0  0  0
    5.9940   -0.1750    0.1540 C   0  0  2  0  0  0  0  0  0  0  0  0
    5.8140    1.0340   -0.5130 O   0  0  0  0  0  0  0  0  0  0  0  0
    6.9510    0.0270    1.3340 C   0  0  0  0  0  0  0  0  0  0  0  0
    5.9960    0.5160    2.4010 C   0  0  2  0  0  0  0  0  0  0  0  0
    6.5950    0.4320    3.7830 C   0  0  0  0  0  0  0  0  0  0  0  0
    4.8560   -0.4950    2.2340 C   0  0  0  0  0  0  0  0  0  0  0  0
    4.6880   -0.6640    0.7620 C   0  0  1  0  0  0  0  0  0  0  0  0
    3.5420    0.1160    0.1800 C   0  0  0  0  0  0  0  0  0  0  0  0
    2.2060   -0.2790    0.7040 C   0  0  2  0  0  0  0  0  0  0  0  0
    1.8890   -1.7380    0.4230 C   0  0  0  0  0  0  0  0  0  0  0  0
    1.9020   -1.9450   -0.9540 O   0  0  0  0  0  0  0  0  0  0  0  0
    1.1710    0.6150    0.0470 C   0  0  0  0  0  0  0  0  0  0  0  0
    1.1870    0.4390   -1.7540 S   0  0  0  0  0  0  0  0  0  0  0  0
   -0.0420    1.5110   -2.4910 C   0  0  0  0  0  0  0  0  0  0  0  0
   -1.4100    1.1510   -2.1750 N   0  0  0  0  0  0  0  0  0  0  0  0
   -2.1710    0.2410   -2.9950 C   0  0  0  0  0  0  0  0  0  0  0  0
   -3.4980   -0.0050   -2.2570 C   0  0  0  0  0  0  0  0  0  0  0  0
   -3.6730    1.2180   -1.3900 C   0  0  1  0  0  0  0  0  0  0  0  0
   -4.1640    2.3500   -2.2560 C   0  0  0  0  0  0  0  0  0  0  0  0
   -4.3570    0.9660   -0.1530 C   0  0  0  0  0  0  0  0  0  0  0  0
   -5.7150    0.4680    0.0020 C   0  0  2  0  0  0  0  0  0  0  0  0
   -6.7950    1.3370   -0.6130 C   0  0  0  0  0  0  0  0  0  0  0  0
   -5.9860    0.5530    1.5350 C   0  0  0  0  0  0  0  0  0  0  0  0
   -5.8840   -0.8230    2.0800 C   0  0  2  0  0  0  0  0  0  0  0  0
   -4.9620   -0.9120    3.2930 C   0  0  0  0  0  0  0  0  0  0  0  0
   -5.3800   -1.6790    0.9360 C   0  0  0  0  0  0  0  0  0  0  0  0
   -6.0570   -0.9410   -0.2300 C   0  0  2  0  0  0  0  0  0  0  0  0
   -5.8820   -1.5230   -1.4220 O   0  0  0  0  0  0  0  0  0  0  0  0
   -2.2380    1.5510   -1.1210 C   0  0  0  0  0  0  0  0  0  0  0  0
   -1.8620    2.1170   -0.0720 O   0  0  0  0  0  0  0  0  0  0  0  0
  1  2  1  0
  2  3  1  0
  3  4  2  0
  3  5  1  0
  5  6  1  6
  5  7  1  0
  5 11  1  0
  7  8  1  0
  8  9  1  1
  8 10  1  0
 10 11  1  0
 11 12  1  6
 13 12  1  6
 13 14  1  0
 13 16  1  0
 14 15  1  0
 16 17  1  0
 17 18  1  0
 18 19  1  0
 19 20  1  0
 19 33  1  0
 20 21  1  0
 21 22  1  0
 22 23  1  6
 22 24  1  0
 22 33  1  0
 24 25  1  0
 25 26  1  6
 25 27  1  0
 25 31  1  0
 27 28  1  0
 28 29  1  1
 28 30  1  0
 30 31  1  0
 31 32  1  6
 33 34  2  0
M  END
