
     RDKit          3D

 15 14  0  0  0  0  0  0  0  0999 V2000
   -6.1350   -0.0680   -1.2670 C   0  0  0  0  0  0  0  0  0  0  0  0
   -4.9920    0.7800   -0.7720 C   0  0  0  0  0  0  0  0  0  0  0  0
   -4.4430    0.5130    0.3950 C   0  0  0  0  0  0  0  0  0  0  0  0
   -3.3060    1.3360    0.9090 C   0  0  0  0  0  0  0  0  0  0  0  0
   -2.0950    0.4620    1.1260 C   0  0  0  0  0  0  0  0  0  0  0  0
   -1.6520   -0.2160   -0.1560 C   0  0  0  0  0  0  0  0  0  0  0  0
   -0.4640   -1.0420    0.1850 C   0  0  0  0  0  0  0  0  0  0  0  0
    0.7410   -0.8750   -0.3740 C   0  0  0  0  0  0  0  0  0  0  0  0
    1.8760   -1.7250    0.0060 C   0  0  0  0  0  0  0  0  0  0  0  0
    2.9900   -0.8800    0.5750 C   0  0  0  0  0  0  0  0  0  0  0  0
    3.4380    0.0890   -0.4610 C   0  0  0  0  0  0  0  0  0  0  0  0
    4.5570    1.0050   -0.0570 C   0  0  0  0  0  0  0  0  0  0  0  0
    5.8000    0.3140    0.3300 C   0  0  0  0  0  0  0  0  0  0  0  0
    5.8800   -0.5470    1.2380 O   0  0  0  0  0  0  0  0  0  0  0  0
    7.0080    0.6040   -0.3360 O   0  0  0  0  0  0  0  0  0  0  0  0
  1  2  1  0
  2  3  2  3
  3  4  1  0
  4  5  1  0
  5  6  1  0
  6  7  1  0
  7  8  2  3
  8  9  1  0
  9 10  1  0
 10 11  1  0
 11 12  1  0
 12 13  1  0
 13 14  2  0
 13 15  1  0
M  END
