
     RDKit          3D

 22 22  0  0  0  0  0  0  0  0999 V2000
    0.7630    0.6250    1.7330 O   0  0  0  0  0  0  0  0  0  0  0  0
    0.6420    0.3770    0.5250 C   0  0  0  0  0  0  0  0  0  0  0  0
    1.8710    0.4170   -0.3510 C   0  0  0  0  0  0  0  0  0  0  0  0
    3.0500    0.7640    0.4270 C   0  0  0  0  0  0  0  0  0  0  0  0
    4.1250    0.0270    0.5900 C   0  0  0  0  0  0  0  0  0  0  0  0
    4.3430   -1.3130    0.0080 C   0  0  0  0  0  0  0  0  0  0  0  0
    5.3940   -1.1250   -1.0770 C   0  0  0  0  0  0  0  0  0  0  0  0
    6.3270   -0.0360   -0.6250 C   0  0  0  0  0  0  0  0  0  0  0  0
    6.4850    0.0360    0.8850 C   0  0  0  0  0  0  0  0  0  0  0  0
    5.2030    0.4900    1.3740 O   0  0  0  0  0  0  0  0  0  0  0  0
   -0.6170    0.0600   -0.0330 N   0  0  0  0  0  0  0  0  0  0  0  0
   -1.7890    0.0070    0.7250 N   0  0  0  0  0  0  0  0  0  0  0  0
   -3.0590   -0.1830    0.0880 C   0  0  0  0  0  0  0  0  0  0  0  0
   -3.0310   -0.2950   -1.1740 O   0  0  0  0  0  0  0  0  0  0  0  0
   -4.2640   -0.2460    0.7710 O   0  0  0  0  0  0  0  0  0  0  0  0
   -5.4100   -0.4360    0.0000 C   0  0  0  0  0  0  0  0  0  0  0  0
   -5.8150   -1.6830   -0.2460 C   0  0  0  0  0  0  0  0  0  0  0  0
   -6.9510   -1.8440   -1.0110 O   0  0  0  0  0  0  0  0  0  0  0  0
   -6.1340    0.7060   -0.5140 C   0  0  0  0  0  0  0  0  0  0  0  0
   -7.2650    0.5200   -1.2770 O   0  0  0  0  0  0  0  0  0  0  0  0
   -5.7060    1.9180   -0.2510 C   0  0  0  0  0  0  0  0  0  0  0  0
   -6.4010    3.0190   -0.7460 O   0  0  0  0  0  0  0  0  0  0  0  0
  1  2  2  0
  2  3  1  0
  2 11  1  0
  3  4  1  0
  4  5  2  3
  5  6  1  0
  5 10  1  0
  6  7  1  0
  7  8  1  0
  8  9  1  0
  9 10  1  0
 11 12  1  0
 12 13  1  0
 13 14  2  0
 13 15  1  0
 15 16  1  0
 16 17  2  3
 16 19  1  0
 17 18  1  0
 19 20  1  0
 19 21  2  3
 21 22  1  0
M  END
