
     RDKit          3D

 22 23  0  0  0  0  0  0  0  0999 V2000
    6.0000   -0.6480   -0.2890 N   0  0  0  0  0  0  0  0  0  0  0  0
    4.7100   -0.2270    0.1360 C   0  0  0  0  0  0  0  0  0  0  0  0
    4.5600    0.9480    0.8380 C   0  0  0  0  0  0  0  0  0  0  0  0
    5.6910    1.6940    1.1110 O   0  0  0  0  0  0  0  0  0  0  0  0
    3.3210    1.3970    1.2710 C   0  0  0  0  0  0  0  0  0  0  0  0
    2.1890    0.6330    0.9870 C   0  0  0  0  0  0  0  0  0  0  0  0
    2.3200   -0.5440    0.2870 C   0  0  0  0  0  0  0  0  0  0  0  0
    1.1890   -1.2870    0.0150 O   0  0  0  0  0  0  0  0  0  0  0  0
   -0.0740   -0.8300    0.4560 C   0  0  0  0  0  0  0  0  0  0  0  0
   -1.1390   -1.8410    0.0190 C   0  0  0  0  0  0  0  0  0  0  0  0
   -2.4260   -1.5020    0.3930 O   0  0  0  0  0  0  0  0  0  0  0  0
   -3.1750   -0.4220    0.0900 C   0  0  0  0  0  0  0  0  0  0  0  0
   -3.1510    0.6940    0.8910 C   0  0  0  0  0  0  0  0  0  0  0  0
   -2.3560    0.7320    2.0280 O   0  0  0  0  0  0  0  0  0  0  0  0
   -3.9230    1.8200    0.5880 C   0  0  0  0  0  0  0  0  0  0  0  0
   -4.7150    1.7920   -0.5370 C   0  0  0  0  0  0  0  0  0  0  0  0
   -4.7590    0.6660   -1.3720 C   0  0  0  0  0  0  0  0  0  0  0  0
   -5.5800    0.7180   -2.4820 O   0  0  0  0  0  0  0  0  0  0  0  0
   -3.9920   -0.4040   -1.0380 C   0  0  0  0  0  0  0  0  0  0  0  0
   -3.9760   -1.5420   -1.7970 O   0  0  0  0  0  0  0  0  0  0  0  0
    3.5700   -0.9550   -0.1260 C   0  0  0  0  0  0  0  0  0  0  0  0
    3.7170   -2.1400   -0.8330 O   0  0  0  0  0  0  0  0  0  0  0  0
  1  2  1  0
  2  3  2  0
  2 21  1  0
  3  4  1  0
  3  5  1  0
  5  6  2  0
  6  7  1  0
  7  8  1  0
  7 21  2  0
  8  9  1  0
  9 10  1  0
 10 11  1  0
 11 12  1  0
 12 13  2  0
 12 19  1  0
 13 14  1  0
 13 15  1  0
 15 16  2  0
 16 17  1  0
 17 18  1  0
 17 19  2  0
 19 20  1  0
 21 22  1  0
M  END
