
     RDKit          3D

 19 21  0  0  0  0  0  0  0  0999 V2000
    3.8930   -1.5510   -1.2900 N   0  0  0  0  0  0  0  0  0  0  0  0
    2.5520   -1.0570   -0.8840 C   0  0  0  0  0  0  0  0  0  0  0  0
    2.7880    0.1460   -0.0520 C   0  0  0  0  0  0  0  0  0  0  0  0
    4.0830    0.5530    0.1920 N   0  0  0  0  0  0  0  0  0  0  0  0
    4.3570    1.6400    0.9220 C   0  0  0  0  0  0  0  0  0  0  0  0
    3.2950    2.3530    1.4330 C   0  0  0  0  0  0  0  0  0  0  0  0
    2.0290    1.9670    1.2030 N   0  0  0  0  0  0  0  0  0  0  0  0
    1.7440    0.8540    0.4550 C   0  0  0  0  0  0  0  0  0  0  0  0
    0.3660    0.4950    0.1880 C   0  0  0  0  0  0  0  0  0  0  0  0
   -0.4580    1.4890   -0.3660 C   0  0  0  0  0  0  0  0  0  0  0  0
   -1.7810    1.3230   -0.6480 C   0  0  0  0  0  0  0  0  0  0  0  0
   -2.3500    0.0900   -0.3690 C   0  0  0  0  0  0  0  0  0  0  0  0
   -3.6910   -0.0780   -0.6560 C   0  0  0  0  0  0  0  0  0  0  0  0
   -4.4380    0.9920   -1.2170 N   0  0  0  0  0  0  0  0  0  0  0  0
   -4.2790   -1.3040   -0.3850 C   0  0  0  0  0  0  0  0  0  0  0  0
   -3.5310   -2.3050    0.1530 C   0  0  0  0  0  0  0  0  0  0  0  0
   -2.1860   -2.1160    0.4340 C   0  0  0  0  0  0  0  0  0  0  0  0
   -1.5840   -0.9160    0.1760 C   0  0  0  0  0  0  0  0  0  0  0  0
   -0.2310   -0.6930    0.4460 C   0  0  0  0  0  0  0  0  0  0  0  0
  1  2  1  0
  2  3  1  0
  3  4  2  0
  3  8  1  0
  4  5  1  0
  5  6  2  0
  6  7  1  0
  7  8  2  0
  8  9  1  0
  9 10  2  0
  9 19  1  0
 10 11  1  0
 11 12  2  0
 12 13  1  0
 12 18  1  0
 13 14  1  0
 13 15  2  0
 15 16  1  0
 16 17  2  0
 17 18  1  0
 18 19  2  0
M  END
