
     RDKit          3D

 20 21  0  0  0  0  0  0  0  0999 V2000
    7.4350   -0.3300    0.7610 C   0  0  0  0  0  0  0  0  0  0  0  0
    6.5800   -0.2820   -0.4670 C   0  0  0  0  0  0  0  0  0  0  0  0
    5.1030   -0.0920   -0.1190 C   0  0  0  0  0  0  0  0  0  0  0  0
    4.3840   -0.0620   -1.3850 N   0  0  0  0  0  0  0  0  0  0  0  0
    2.9530    0.1080   -1.3800 C   0  0  0  0  0  0  0  0  0  0  0  0
    2.3950    0.7580   -0.4160 N   0  0  0  0  0  0  0  0  0  0  0  0
    0.9680    0.9600   -0.3570 C   0  0  0  0  0  0  0  0  0  0  0  0
    0.4250    1.5930    0.5830 O   0  0  0  0  0  0  0  0  0  0  0  0
    0.1560    0.4060   -1.4280 C   0  0  0  0  0  0  0  0  0  0  0  0
   -1.1400    0.5310   -1.4710 N   0  0  0  0  0  0  0  0  0  0  0  0
   -1.8370    1.2180   -0.4720 N   0  0  0  0  0  0  0  0  0  0  0  0
   -2.2940    0.4730    0.6700 C   0  0  1  0  0  0  0  0  0  0  0  0
   -3.0450    1.3330    1.6970 C   0  0  0  0  0  0  0  0  0  0  0  0
   -3.7340    0.2680    0.9480 C   0  0  2  0  0  0  0  0  0  0  0  0
   -4.0570   -1.0180    1.6890 C   0  0  0  0  0  0  0  0  0  0  0  0
   -3.5690   -2.1720    0.8150 C   0  0  0  0  0  0  0  0  0  0  0  0
   -4.7820    0.6940   -0.0490 C   0  0  0  0  0  0  0  0  0  0  0  0
   -6.0820    0.3640    0.5020 N   0  0  0  0  0  0  0  0  0  0  0  0
    0.8220   -0.3210   -2.4980 C   0  0  0  0  0  0  0  0  0  0  0  0
    2.1470   -0.4440   -2.4450 C   0  0  0  0  0  0  0  0  0  0  0  0
  1  2  1  0
  2  3  1  0
  3  4  1  0
  4  5  1  0
  5  6  2  0
  5 20  1  0
  6  7  1  0
  7  8  2  0
  7  9  1  0
  9 10  2  3
  9 19  1  0
 10 11  1  0
 12 11  1  6
 12 13  1  0
 12 14  1  0
 13 14  1  0
 14 15  1  1
 14 17  1  0
 15 16  1  0
 17 18  1  0
 19 20  2  0
M  CHG  1  18   1
M  END
