
     RDKit          3D

 20 21  0  0  0  0  0  0  0  0999 V2000
    6.9700    1.4760    0.7200 C   0  0  0  0  0  0  0  0  0  0  0  0
    6.5120    0.1700    0.1100 C   0  0  0  0  0  0  0  0  0  0  0  0
    5.0610    0.1870   -0.1940 C   0  0  0  0  0  0  0  0  0  0  0  0
    4.2590    1.2510    0.0520 N   0  0  0  0  0  0  0  0  0  0  0  0
    3.0200    0.9320   -0.3380 C   0  0  0  0  0  0  0  0  0  0  0  0
    3.0760   -0.3480   -0.8280 C   0  0  0  0  0  0  0  0  0  0  0  0
    1.9690   -1.1710   -1.3870 C   0  0  0  0  0  0  0  0  0  0  0  0
    0.7100   -0.4640   -1.3780 N   0  0  0  0  0  0  0  0  0  0  0  0
   -0.1960   -0.9780   -0.3690 C   0  0  1  0  0  0  0  0  0  0  0  0
    0.2530   -0.7130    1.0280 C   0  0  0  0  0  0  0  0  0  0  0  0
   -1.5690   -0.3660   -0.5530 C   0  0  0  0  0  0  0  0  0  0  0  0
   -2.5050   -0.8560    0.4380 N   0  0  0  0  0  0  0  0  0  0  0  0
   -3.8430   -0.4090    0.4450 C   0  0  0  0  0  0  0  0  0  0  0  0
   -4.2500    0.5020   -0.5030 C   0  0  0  0  0  0  0  0  0  0  0  0
   -5.5550    0.9550   -0.5180 C   0  0  0  0  0  0  0  0  0  0  0  0
   -6.4670    0.4920    0.4280 C   0  0  0  0  0  0  0  0  0  0  0  0
   -7.8240    0.9450    0.4350 N   0  0  0  0  0  0  0  0  0  0  0  0
   -6.0520   -0.3970    1.3460 N   0  0  0  0  0  0  0  0  0  0  0  0
   -4.7770   -0.8410    1.3620 C   0  0  0  0  0  0  0  0  0  0  0  0
    4.3060   -0.7350   -0.7170 O   0  0  0  0  0  0  0  0  0  0  0  0
  1  2  1  0
  2  3  1  0
  3  4  2  0
  3 20  1  0
  4  5  1  0
  5  6  2  0
  6  7  1  0
  6 20  1  0
  7  8  1  0
  8  9  1  0
  9 10  1  1
  9 11  1  0
 11 12  1  0
 12 13  1  0
 13 14  2  0
 13 19  1  0
 14 15  1  0
 15 16  2  0
 16 17  1  0
 16 18  1  0
 18 19  2  0
M  CHG  1   8   1
M  END
