
     RDKit          3D

 20 20  0  0  0  0  0  0  0  0999 V2000
   -5.3890    1.3530    1.5740 C   0  0  0  0  0  0  0  0  0  0  0  0
   -4.4740    0.5270    1.1270 C   0  0  0  0  0  0  0  0  0  0  0  0
   -4.8460   -0.6060    0.2440 C   0  0  0  0  0  0  0  0  0  0  0  0
   -3.0530    0.7500    1.5220 C   0  0  0  0  0  0  0  0  0  0  0  0
   -2.4970   -0.4360    2.2730 C   0  0  0  0  0  0  0  0  0  0  0  0
   -1.1700   -0.1740    2.6170 O   0  0  0  0  0  0  0  0  0  0  0  0
   -0.1620    0.0860    1.6470 C   0  0  0  0  0  0  0  0  0  0  0  0
    0.1590    1.4520    1.5340 N   0  0  0  0  0  0  0  0  0  0  0  0
    0.3580   -0.9110    0.9750 C   0  0  0  0  0  0  0  0  0  0  0  0
   -0.1510   -2.2180    1.2840 C   0  0  0  0  0  0  0  0  0  0  0  0
   -0.5700   -3.2910    1.5600 N   0  0  0  0  0  0  0  0  0  0  0  0
    1.3940   -0.7760   -0.0260 C   0  0  0  0  0  0  0  0  0  0  0  0
    1.8590   -1.8240   -0.6590 C   0  0  0  0  0  0  0  0  0  0  0  0
    1.3400   -3.1370   -0.3680 N   0  0  0  0  0  0  0  0  0  0  0  0
    2.8990   -1.7630   -1.6640 N   0  0  0  0  0  0  0  0  0  0  0  0
    3.3940   -0.6250   -1.9510 C   0  0  0  0  0  0  0  0  0  0  0  0
    2.9690    0.5640   -1.3290 N   0  0  0  0  0  0  0  0  0  0  0  0
    3.5940    1.8530   -1.6950 C   0  0  0  0  0  0  0  0  0  0  0  0
    4.6480    1.6790   -2.7410 C   0  0  0  0  0  0  0  0  0  0  0  0
    1.9360    0.5610   -0.3380 C   0  0  0  0  0  0  0  0  0  0  0  0
  1  2  2  0
  2  3  1  0
  2  4  1  0
  4  5  1  0
  5  6  1  0
  6  7  1  0
  7  8  1  0
  7  9  2  3
  9 10  1  0
  9 12  1  0
 10 11  3  0
 12 13  2  0
 12 20  1  0
 13 14  1  0
 13 15  1  0
 15 16  2  0
 16 17  1  0
 17 18  1  0
 17 20  1  0
 18 19  1  0
M  CHG  1  15   1
M  END
