
     RDKit          3D

 20 21  0  0  0  0  0  0  0  0999 V2000
   -2.8550    2.0960   -0.6670 N   0  0  0  0  0  0  0  0  0  0  0  0
   -3.9920    1.5490    0.0020 C   0  0  0  0  0  0  0  0  0  0  0  0
   -3.9670    0.0550    0.0580 C   0  0  1  0  0  0  0  0  0  0  0  0
   -3.9430   -0.5950   -1.2940 C   0  0  0  0  0  0  0  0  0  0  0  0
   -4.3490   -2.0330   -1.1100 C   0  0  0  0  0  0  0  0  0  0  0  0
   -3.6500   -2.7480   -0.0220 C   0  0  0  0  0  0  0  0  0  0  0  0
   -3.1480   -1.9700    1.1130 C   0  0  0  0  0  0  0  0  0  0  0  0
   -2.8220   -0.5260    0.8250 C   0  0  1  0  0  0  0  0  0  0  0  0
   -1.6370   -0.5200    0.0920 O   0  0  0  0  0  0  0  0  0  0  0  0
   -0.5990    0.0830    0.7870 C   0  0  0  0  0  0  0  0  0  0  0  0
    0.6830    0.0940    0.0000 C   0  0  0  0  0  0  0  0  0  0  0  0
    1.7630    0.7140    0.7080 N   0  0  0  0  0  0  0  0  0  0  0  0
    2.3210    1.8630    0.0010 C   0  0  0  0  0  0  0  0  0  0  0  0
    3.1910    1.3860   -1.1330 C   0  0  0  0  0  0  0  0  0  0  0  0
    4.2810    0.5750   -0.6690 N   0  0  0  0  0  0  0  0  0  0  0  0
    5.5080    0.9870   -0.3050 C   0  0  0  0  0  0  0  0  0  0  0  0
    6.2300   -0.1240    0.0710 C   0  0  0  0  0  0  0  0  0  0  0  0
    7.5900   -0.1210    0.5280 N   0  0  0  0  0  0  0  0  0  0  0  0
    5.4010   -1.1940   -0.0810 C   0  0  0  0  0  0  0  0  0  0  0  0
    4.2210   -0.7370   -0.5330 N   0  0  0  0  0  0  0  0  0  0  0  0
  1  2  1  0
  3  2  1  6
  3  4  1  0
  3  8  1  0
  4  5  1  0
  5  6  1  0
  6  7  1  0
  7  8  1  0
  8  9  1  6
  9 10  1  0
 10 11  1  0
 11 12  1  0
 12 13  1  0
 13 14  1  0
 14 15  1  0
 15 16  1  0
 15 20  1  0
 16 17  2  0
 17 18  1  0
 17 19  1  0
 19 20  2  0
M  CHG  1  12   1
M  END
