
     RDKit          3D

 20 21  0  0  0  0  0  0  0  0999 V2000
   -6.4820   -1.3210   -0.9240 N   0  0  0  0  0  0  0  0  0  0  0  0
   -5.1580   -0.8980   -0.4830 C   0  0  0  0  0  0  0  0  0  0  0  0
   -5.3300    0.2930    0.3890 C   0  0  0  0  0  0  0  0  0  0  0  0
   -4.0680    0.8700    0.9380 C   0  0  1  0  0  0  0  0  0  0  0  0
   -3.2630   -0.0490    1.7810 C   0  0  0  0  0  0  0  0  0  0  0  0
   -2.0590   -0.6180    1.0180 C   0  0  0  0  0  0  0  0  0  0  0  0
   -1.1120    0.5310    0.7940 C   0  0  1  0  0  0  0  0  0  0  0  0
   -0.2220    0.2960   -0.3270 N   0  0  0  0  0  0  0  0  0  0  0  0
    1.1920    0.3330   -0.2280 C   0  0  0  0  0  0  0  0  0  0  0  0
    1.6740    0.5860    0.9100 O   0  0  0  0  0  0  0  0  0  0  0  0
    2.0700    0.1090   -1.2970 N   0  0  0  0  0  0  0  0  0  0  0  0
    3.5210    0.1540   -1.1650 C   0  0  0  0  0  0  0  0  0  0  0  0
    4.0390   -0.8550   -0.1850 C   0  0  0  0  0  0  0  0  0  0  0  0
    5.5170   -0.7150   -0.1370 C   0  0  0  0  0  0  0  0  0  0  0  0
    6.2720   -0.4240    0.8670 N   0  0  0  0  0  0  0  0  0  0  0  0
    7.6630   -0.3950    0.4510 C   0  0  0  0  0  0  0  0  0  0  0  0
    7.6090   -0.7120   -0.9440 N   0  0  0  0  0  0  0  0  0  0  0  0
    6.3840   -0.8970   -1.2940 C   0  0  0  0  0  0  0  0  0  0  0  0
   -1.8760    1.8140    0.4670 C   0  0  0  0  0  0  0  0  0  0  0  0
   -3.1860    1.3970   -0.1740 C   0  0  0  0  0  0  0  0  0  0  0  0
  1  2  1  0
  2  3  1  0
  4  3  1  6
  4  5  1  0
  4 20  1  0
  5  6  1  0
  6  7  1  0
  7  8  1  6
  7 19  1  0
  8  9  1  0
  9 10  2  0
  9 11  1  0
 11 12  1  0
 12 13  1  0
 13 14  1  0
 14 15  2  0
 14 18  1  0
 15 16  1  0
 16 17  1  0
 17 18  2  0
 19 20  1  0
M  CHG  1  17   1
M  END
