
     RDKit          3D

 11 12  0  0  0  0  0  0  0  0999 V2000
    3.5780   -0.1900    0.0140 C   0  0  0  0  0  0  0  0  0  0  0  0
    2.1920   -0.1700   -0.1210 N   0  0  0  0  0  0  0  0  0  0  0  0
    1.2660   -0.7270   -1.5850 S   0  0  0  0  0  0  0  0  0  0  0  0
   -0.3780   -0.3810   -0.9660 C   0  0  0  0  0  0  0  0  0  0  0  0
   -1.6980   -0.3970   -1.1770 N   0  0  0  0  0  0  0  0  0  0  0  0
   -2.3030    0.0930   -0.0740 C   0  0  0  0  0  0  0  0  0  0  0  0
   -3.7200    0.2470    0.1110 N   0  0  0  0  0  0  0  0  0  0  0  0
   -1.3420    0.4010    0.7930 N   0  0  0  0  0  0  0  0  0  0  0  0
   -0.0910    0.1270    0.2970 C   0  0  0  0  0  0  0  0  0  0  0  0
    1.1900    0.2120    0.6690 C   0  0  0  0  0  0  0  0  0  0  0  0
    1.5510    0.6840    1.8540 O   0  0  0  0  0  0  0  0  0  0  0  0
  1  2  1  0
  2  3  1  0
  2 10  1  0
  3  4  1  0
  4  5  1  0
  4  9  2  0
  5  6  1  0
  6  7  1  0
  6  8  2  0
  8  9  1  0
  9 10  1  0
 10 11  2  0
M  CHG  1   8   1
M  END
