
     RDKit          3D

 11 11  0  0  0  0  0  0  0  0999 V2000
    2.9140   -0.5370   -0.4480 C   0  0  0  0  0  0  0  0  0  0  0  0
    1.9030   -0.4130    0.5920 N   0  0  0  0  0  0  0  0  0  0  0  0
    0.6340    0.1310    0.2730 C   0  0  0  0  0  0  0  0  0  0  0  0
    0.3720    1.4920   -0.0050 N   0  0  0  0  0  0  0  0  0  0  0  0
    0.2020    2.3810    0.9920 O   0  0  0  0  0  0  0  0  0  0  0  0
   -0.3910   -0.7160    0.2350 C   0  0  0  0  0  0  0  0  0  0  0  0
   -0.3720   -2.1250    0.4790 N   0  0  0  0  0  0  0  0  0  0  0  0
   -1.5510   -2.5650    0.3440 N   0  0  0  0  0  0  0  0  0  0  0  0
   -2.4630   -1.5480    0.0090 C   0  0  0  0  0  0  0  0  0  0  0  0
   -1.7870   -0.4190   -0.0630 C   0  0  0  0  0  0  0  0  0  0  0  0
   -2.3260    0.8560   -0.3770 N   0  0  0  0  0  0  0  0  0  0  0  0
  1  2  1  0
  2  3  1  0
  3  4  1  0
  3  6  2  3
  4  5  1  0
  6  7  1  0
  6 10  1  0
  7  8  2  0
  8  9  1  0
  9 10  2  0
 10 11  1  0
M  END
