
     RDKit          3D

 12 14  0  0  0  0  0  0  0  0999 V2000
   -1.5670   -0.0340    1.0020 N   0  0  0  0  0  0  0  0  0  0  0  0
   -1.0880   -0.2010   -0.3950 C   0  0  1  0  0  0  0  0  0  0  0  0
   -1.0150   -1.5670   -0.7380 N   0  0  0  0  0  0  0  0  0  0  0  0
    0.2310   -2.1300   -0.1280 N   0  0  0  0  0  0  0  0  0  0  0  0
    1.0600   -1.1220    0.0730 C   0  0  0  0  0  0  0  0  0  0  0  0
    2.2880   -0.3520    0.4750 C   0  0  0  0  0  0  0  0  0  0  0  0
    2.1090    1.0280   -0.1570 N   0  0  0  0  0  0  0  0  0  0  0  0
    0.8480    1.1750   -0.4820 C   0  0  0  0  0  0  0  0  0  0  0  0
   -0.3160    1.8970   -1.0340 C   0  0  0  0  0  0  0  0  0  0  0  0
   -0.3290    3.4390   -1.4290 S   0  0  0  0  0  0  0  0  0  0  0  0
   -1.4040    0.9110   -1.1290 O   0  0  0  0  0  0  0  0  0  0  0  0
    0.3320   -0.0520   -0.3130 N   0  0  0  0  0  0  0  0  0  0  0  0
  2  1  1  1
  2  3  1  0
  2 11  1  0
  2 12  1  0
  3  4  1  0
  4  5  2  0
  5  6  1  0
  5 12  1  0
  6  7  1  0
  7  8  2  0
  8  9  1  0
  8 12  1  0
  9 10  2  0
  9 11  1  0
M  CHG  1   1   1
M  END
