
     RDKit          3D

 20 20  0  0  0  0  0  0  0  0999 V2000
   -5.5240   -0.6400    1.8230 C   0  0  0  0  0  0  0  0  0  0  0  0
   -4.8900    0.6620    1.8210 N   0  0  0  0  0  0  0  0  0  0  0  0
   -3.4680    0.5750    1.5470 C   0  0  0  0  0  0  0  0  0  0  0  0
   -3.2900    0.4280    0.0620 C   0  0  0  0  0  0  0  0  0  0  0  0
   -4.2360    0.3810   -0.8800 N   0  0  0  0  0  0  0  0  0  0  0  0
   -3.6950    0.2440   -2.0970 C   0  0  0  0  0  0  0  0  0  0  0  0
   -4.4080    0.1510   -3.4170 C   0  0  0  0  0  0  0  0  0  0  0  0
   -2.3130    0.1980   -1.9390 C   0  0  0  0  0  0  0  0  0  0  0  0
   -2.0680    0.3140   -0.5920 C   0  0  0  0  0  0  0  0  0  0  0  0
   -0.8090    0.3190    0.0440 N   0  0  0  0  0  0  0  0  0  0  0  0
    0.4020    0.1990   -0.6700 C   0  0  0  0  0  0  0  0  0  0  0  0
    0.4330    0.0830   -1.9000 O   0  0  0  0  0  0  0  0  0  0  0  0
    1.6810    0.2190    0.1400 C   0  0  0  0  0  0  0  0  0  0  0  0
    2.8170    0.0780   -0.8380 C   0  0  0  0  0  0  0  0  0  0  0  0
    4.1360    0.0890   -0.1050 C   0  0  0  0  0  0  0  0  0  0  0  0
    4.1530    0.2050    1.1450 O   0  0  0  0  0  0  0  0  0  0  0  0
    5.2960   -0.0370   -0.9080 N   0  0  0  0  0  0  0  0  0  0  0  0
    6.6010   -0.0410   -0.3060 C   0  0  0  0  0  0  0  0  0  0  0  0
    6.7030   -1.2080    0.6360 C   0  0  0  0  0  0  0  0  0  0  0  0
    7.9590   -1.2630    1.2550 O   0  0  0  0  0  0  0  0  0  0  0  0
  1  2  1  0
  2  3  1  0
  3  4  1  0
  4  5  1  0
  4  9  2  0
  5  6  1  0
  6  7  1  0
  6  8  2  0
  8  9  1  0
  9 10  1  0
 10 11  1  0
 11 12  2  0
 11 13  1  0
 13 14  1  0
 14 15  1  0
 15 16  2  0
 15 17  1  0
 17 18  1  0
 18 19  1  0
 19 20  1  0
M  CHG  1   2   1
M  END
