
     RDKit          3D

 19 19  0  0  0  0  0  0  0  0999 V2000
    4.3930    3.7610    1.2130 C   0  0  0  0  0  0  0  0  0  0  0  0
    3.4270    2.6570    0.7620 C   0  0  0  0  0  0  0  0  0  0  0  0
    2.3420    2.5980    1.7880 C   0  0  0  0  0  0  0  0  0  0  0  0
    1.3280    1.5060    1.3950 C   0  0  0  0  0  0  0  0  0  0  0  0
    2.0120    0.1700    1.3230 C   0  0  0  0  0  0  0  0  0  0  0  0
    0.9890   -0.8880    0.9630 C   0  0  0  0  0  0  0  0  0  0  0  0
    0.3630   -0.6260   -0.3510 C   0  0  0  0  0  0  0  0  0  0  0  0
   -0.5770   -1.6060   -0.8390 N   0  0  0  0  0  0  0  0  0  0  0  0
   -0.9290   -2.8670   -0.3020 C   0  0  0  0  0  0  0  0  0  0  0  0
   -1.0830   -3.2520    0.8940 N   0  0  0  0  0  0  0  0  0  0  0  0
   -1.1170   -3.7510   -1.5260 C   0  0  0  0  0  0  0  0  0  0  0  0
   -1.9120   -2.7830   -2.3600 C   0  0  0  0  0  0  0  0  0  0  0  0
   -1.3170   -1.4460   -2.0730 C   0  0  1  0  0  0  0  0  0  0  0  0
   -2.4730   -0.5120   -1.8920 C   0  0  0  0  0  0  0  0  0  0  0  0
   -3.1060   -0.2120   -2.9370 O   0  0  0  0  0  0  0  0  0  0  0  0
   -2.8870    0.0350   -0.6740 N   0  0  0  0  0  0  0  0  0  0  0  0
   -4.0150    0.9330   -0.6250 C   0  0  0  0  0  0  0  0  0  0  0  0
   -4.4040    1.4680    0.6330 N   0  0  0  0  0  0  0  0  0  0  0  0
   -4.5960    1.1970   -1.6900 O   0  0  0  0  0  0  0  0  0  0  0  0
  1  2  1  0
  2  3  1  0
  3  4  1  0
  4  5  1  0
  5  6  1  0
  6  7  1  0
  7  8  1  0
  8  9  1  0
  8 13  1  0
  9 10  2  0
  9 11  1  0
 11 12  1  0
 12 13  1  0
 13 14  1  1
 14 15  2  0
 14 16  1  0
 16 17  1  0
 17 18  1  0
 17 19  2  0
M  CHG  1  10   1
M  END
