
     RDKit          3D

 20 20  0  0  0  0  0  0  0  0999 V2000
   -3.3990    1.1520   -1.5870 C   0  0  0  0  0  0  0  0  0  0  0  0
   -2.9390    1.6200   -0.2380 C   0  0  0  0  0  0  0  0  0  0  0  0
   -3.1080    0.6770    0.8940 C   0  0  0  0  0  0  0  0  0  0  0  0
   -2.3940   -0.6190    0.8100 C   0  0  2  0  0  0  0  0  0  0  0  0
   -2.6690   -1.4230    2.0880 C   0  0  0  0  0  0  0  0  0  0  0  0
   -0.9760   -0.4900    0.5820 N   0  0  0  0  0  0  0  0  0  0  0  0
   -0.1240    0.1910    1.4670 C   0  0  0  0  0  0  0  0  0  0  0  0
   -0.6840    0.6930    2.4940 O   0  0  0  0  0  0  0  0  0  0  0  0
    1.3160    0.3700    1.3160 C   0  0  0  0  0  0  0  0  0  0  0  0
    1.9630   -0.1140    0.2910 C   0  0  0  0  0  0  0  0  0  0  0  0
    3.3880    0.0050    0.0430 C   0  0  0  0  0  0  0  0  0  0  0  0
    3.8980   -0.5550   -1.0670 C   0  0  0  0  0  0  0  0  0  0  0  0
    5.2690   -0.4880   -1.3860 N   0  0  0  0  0  0  0  0  0  0  0  0
    6.1400    0.5340   -0.8030 C   0  0  0  0  0  0  0  0  0  0  0  0
    5.6960    0.7410    0.5640 N   0  0  0  0  0  0  0  0  0  0  0  0
    4.3090    0.6970    0.9260 C   0  0  0  0  0  0  0  0  0  0  0  0
    3.9240    1.2570    1.9980 O   0  0  0  0  0  0  0  0  0  0  0  0
   -3.0110   -1.4520   -0.2780 C   0  0  0  0  0  0  0  0  0  0  0  0
   -4.4030   -1.6840   -0.1860 N   0  0  0  0  0  0  0  0  0  0  0  0
   -2.3410   -1.9300   -1.2300 O   0  0  0  0  0  0  0  0  0  0  0  0
  1  2  1  0
  2  3  1  0
  3  4  1  0
  4  5  1  1
  4  6  1  0
  4 18  1  0
  6  7  1  0
  7  8  2  0
  7  9  1  0
  9 10  2  3
 10 11  1  0
 11 12  2  0
 11 16  1  0
 12 13  1  0
 13 14  1  0
 14 15  1  0
 15 16  1  0
 16 17  2  0
 18 19  1  0
 18 20  2  0
M  END
