
     RDKit          3D

 21 21  0  0  0  0  0  0  0  0999 V2000
    0.9380   -3.4290   -0.6220 C   0  0  0  0  0  0  0  0  0  0  0  0
   -0.5660   -3.4140   -0.4720 C   0  0  0  0  0  0  0  0  0  0  0  0
   -1.1020   -2.3260    0.3740 C   0  0  0  0  0  0  0  0  0  0  0  0
   -0.8230   -0.9930   -0.0460 N   0  0  0  0  0  0  0  0  0  0  0  0
   -1.6610   -0.2290   -0.9420 C   0  0  0  0  0  0  0  0  0  0  0  0
   -2.6650    0.5900   -0.2530 C   0  0  0  0  0  0  0  0  0  0  0  0
   -2.7920    0.6250    1.1200 C   0  0  0  0  0  0  0  0  0  0  0  0
   -3.7630    1.4230    1.6900 C   0  0  0  0  0  0  0  0  0  0  0  0
   -4.6240    2.1980    0.9390 C   0  0  0  0  0  0  0  0  0  0  0  0
   -5.6240    3.0210    1.4930 N   0  0  0  0  0  0  0  0  0  0  0  0
   -4.4820    2.1510   -0.4390 C   0  0  0  0  0  0  0  0  0  0  0  0
   -3.5110    1.3540   -1.0310 C   0  0  0  0  0  0  0  0  0  0  0  0
    0.3600   -0.3960    0.4520 C   0  0  0  0  0  0  0  0  0  0  0  0
    1.0920   -1.0710    1.2230 O   0  0  0  0  0  0  0  0  0  0  0  0
    0.7940    0.9210    0.1480 N   0  0  0  0  0  0  0  0  0  0  0  0
    2.0110    1.4700    0.6880 C   0  0  0  0  0  0  0  0  0  0  0  0
    3.2080    0.6960    0.3070 C   0  0  0  0  0  0  0  0  0  0  0  0
    3.1260   -0.3180   -0.4080 O   0  0  0  0  0  0  0  0  0  0  0  0
    4.4370    1.1160    0.7590 O   0  0  0  0  0  0  0  0  0  0  0  0
    5.6530    0.4680    0.4680 C   0  0  0  0  0  0  0  0  0  0  0  0
    5.9480    0.4040   -1.0050 C   0  0  0  0  0  0  0  0  0  0  0  0
  1  2  1  0
  2  3  1  0
  3  4  1  0
  4  5  1  0
  4 13  1  0
  5  6  1  0
  6  7  2  0
  6 12  1  0
  7  8  1  0
  8  9  2  0
  9 10  1  0
  9 11  1  0
 11 12  2  0
 13 14  2  0
 13 15  1  0
 15 16  1  0
 16 17  1  0
 17 18  2  0
 17 19  1  0
 19 20  1  0
 20 21  1  0
M  END
