
     RDKit          3D

 23 25  0  0  0  0  0  0  0  0999 V2000
    3.2560   -2.1210    0.9680 C   0  0  0  0  0  0  0  0  0  0  0  0
    2.1480   -1.1810    0.6280 C   0  0  0  0  0  0  0  0  0  0  0  0
    0.8830   -1.4190    1.1090 C   0  0  0  0  0  0  0  0  0  0  0  0
   -0.1760   -0.5570    0.8080 C   0  0  0  0  0  0  0  0  0  0  0  0
    0.1100    0.5150    0.0270 C   0  0  0  0  0  0  0  0  0  0  0  0
    1.4050    0.7500   -0.4600 C   0  0  0  0  0  0  0  0  0  0  0  0
    2.4460   -0.0940   -0.1670 C   0  0  0  0  0  0  0  0  0  0  0  0
    3.7620    0.1310   -0.6540 N   0  0  0  0  0  0  0  0  0  0  0  0
    4.5940   -0.6840   -1.4940 C   0  0  0  0  0  0  0  0  0  0  0  0
    6.0060   -0.4140   -1.0220 C   0  0  0  0  0  0  0  0  0  0  0  0
    5.9310    0.7930   -0.1220 C   0  0  0  0  0  0  0  0  0  0  0  0
    4.5340    1.3410   -0.3400 C   0  0  0  0  0  0  0  0  0  0  0  0
   -0.9510    1.4720   -0.3090 C   0  0  0  0  0  0  0  0  0  0  0  0
   -0.7180    2.4530   -1.0190 O   0  0  0  0  0  0  0  0  0  0  0  0
   -2.2510    1.2200    0.2170 N   0  0  0  0  0  0  0  0  0  0  0  0
   -3.4400    1.8210   -0.3670 C   0  0  0  0  0  0  0  0  0  0  0  0
   -3.9190    0.8810   -1.4050 C   0  0  0  0  0  0  0  0  0  0  0  0
   -5.0580    0.2670   -1.4900 C   0  0  0  0  0  0  0  0  0  0  0  0
   -6.1430    0.4060   -0.5070 C   0  0  0  0  0  0  0  0  0  0  0  0
   -6.4930   -0.9400    0.1300 C   0  0  0  0  0  0  0  0  0  0  0  0
   -7.7890   -0.7460    1.2980 Cl  0  0  0  0  0  0  0  0  0  0  0  0
   -2.4260    0.3470    1.3670 C   0  0  0  0  0  0  0  0  0  0  0  0
   -1.5300   -0.8380    1.3160 C   0  0  0  0  0  0  0  0  0  0  0  0
  1  2  1  0
  2  3  2  0
  2  7  1  0
  3  4  1  0
  4  5  2  0
  4 23  1  0
  5  6  1  0
  5 13  1  0
  6  7  2  0
  7  8  1  0
  8  9  1  0
  8 12  1  0
  9 10  1  0
 10 11  1  0
 11 12  1  0
 13 14  2  0
 13 15  1  0
 15 16  1  0
 15 22  1  0
 16 17  1  0
 17 18  2  3
 18 19  1  0
 19 20  1  0
 20 21  1  0
 22 23  1  0
M  END
