
     RDKit          3D

 23 24  0  0  0  0  0  0  0  0999 V2000
   -5.7960   -0.0520    1.7100 C   0  0  0  0  0  0  0  0  0  0  0  0
   -5.3220   -0.5410    0.5880 C   0  0  0  0  0  0  0  0  0  0  0  0
   -5.7410    0.1420   -0.6470 C   0  0  0  0  0  0  0  0  0  0  0  0
   -4.4990    0.8890   -1.1570 C   0  0  0  0  0  0  0  0  0  0  0  0
   -3.4490   -0.1750   -1.3900 C   0  0  0  0  0  0  0  0  0  0  0  0
   -2.5980   -0.4200   -0.3100 N   0  0  0  0  0  0  0  0  0  0  0  0
   -1.7130    0.6460    0.0860 C   0  0  0  0  0  0  0  0  0  0  0  0
   -0.7190    0.8460   -0.9590 C   0  0  0  0  0  0  0  0  0  0  0  0
    0.5790    0.7400   -0.8050 C   0  0  0  0  0  0  0  0  0  0  0  0
    1.1970    0.4010    0.4780 C   0  0  0  0  0  0  0  0  0  0  0  0
    1.4650    0.9650   -1.9650 C   0  0  0  0  0  0  0  0  0  0  0  0
    2.6910    0.9020   -2.0110 N   0  0  0  0  0  0  0  0  0  0  0  0
    3.7470    0.6360   -1.1720 C   0  0  0  0  0  0  0  0  0  0  0  0
    4.0630   -0.6310   -0.7460 C   0  0  0  0  0  0  0  0  0  0  0  0
    5.1290   -0.8480    0.0770 C   0  0  0  0  0  0  0  0  0  0  0  0
    5.9020    0.2110    0.4890 C   0  0  0  0  0  0  0  0  0  0  0  0
    6.9740   -0.0050    1.3170 O   0  0  0  0  0  0  0  0  0  0  0  0
    7.3960   -1.2480    1.8190 C   0  0  0  0  0  0  0  0  0  0  0  0
    5.6120    1.4950    0.0810 C   0  0  0  0  0  0  0  0  0  0  0  0
    6.5660    2.8890    0.5770 Cl  0  0  0  0  0  0  0  0  0  0  0  0
    4.5400    1.7100   -0.7460 C   0  0  0  0  0  0  0  0  0  0  0  0
   -2.9740   -1.3400    0.6760 C   0  0  0  0  0  0  0  0  0  0  0  0
   -4.4350   -1.7070    0.7070 C   0  0  0  0  0  0  0  0  0  0  0  0
  1  2  2  0
  2  3  1  0
  2 23  1  0
  3  4  1  0
  4  5  1  0
  5  6  1  0
  6  7  1  0
  6 22  1  0
  7  8  1  0
  8  9  2  3
  9 10  1  0
  9 11  1  0
 11 12  2  3
 12 13  1  0
 13 14  2  0
 13 21  1  0
 14 15  1  0
 15 16  2  0
 16 17  1  0
 16 19  1  0
 17 18  1  0
 19 20  1  0
 19 21  2  0
 22 23  1  0
M  END
