
     RDKit          3D

 23 25  0  0  0  0  0  0  0  0999 V2000
   -4.6690   -2.1320   -0.6230 C   0  0  0  0  0  0  0  0  0  0  0  0
   -4.4620   -0.7260   -0.2070 C   0  0  0  0  0  0  0  0  0  0  0  0
   -5.4950   -0.0600    0.3370 C   0  0  0  0  0  0  0  0  0  0  0  0
   -5.5500    1.3120    0.8230 C   0  0  0  0  0  0  0  0  0  0  0  0
   -4.6900    2.2780    0.5650 C   0  0  0  0  0  0  0  0  0  0  0  0
   -3.4690    2.2200   -0.2680 C   0  0  0  0  0  0  0  0  0  0  0  0
   -2.7960    3.7590   -0.7590 Cl  0  0  0  0  0  0  0  0  0  0  0  0
   -2.8260    1.1250   -0.6850 C   0  0  0  0  0  0  0  0  0  0  0  0
   -3.1300   -0.2430   -0.4490 N   0  0  0  0  0  0  0  0  0  0  0  0
   -2.0970   -1.2180   -0.4290 C   0  0  0  0  0  0  0  0  0  0  0  0
   -1.1790   -1.2040    0.6520 N   0  0  0  0  0  0  0  0  0  0  0  0
   -0.2380   -2.3080    0.4020 C   0  0  0  0  0  0  0  0  0  0  0  0
    0.9980   -1.7050   -0.1790 C   0  0  0  0  0  0  0  0  0  0  0  0
    0.7910   -0.2210   -0.1750 C   0  0  2  0  0  0  0  0  0  0  0  0
    2.0660    0.4120    0.3660 C   0  0  0  0  0  0  0  0  0  0  0  0
    3.1740    0.0800   -0.4480 O   0  0  0  0  0  0  0  0  0  0  0  0
    4.4550    0.5300   -0.1750 C   0  0  0  0  0  0  0  0  0  0  0  0
    5.5210    0.1950   -0.9810 C   0  0  0  0  0  0  0  0  0  0  0  0
    6.8060    0.6350   -0.7220 C   0  0  0  0  0  0  0  0  0  0  0  0
    7.0640    1.4410    0.3750 C   0  0  0  0  0  0  0  0  0  0  0  0
    5.9830    1.7600    1.1630 C   0  0  0  0  0  0  0  0  0  0  0  0
    4.7010    1.3300    0.9190 C   0  0  0  0  0  0  0  0  0  0  0  0
   -0.3530   -0.0520    0.8070 C   0  0  0  0  0  0  0  0  0  0  0  0
  1  2  1  0
  2  3  2  0
  2  9  1  0
  3  4  1  0
  4  5  2  0
  5  6  1  0
  6  7  1  0
  6  8  2  0
  8  9  1  0
  9 10  1  0
 10 11  1  0
 11 12  1  0
 11 23  1  0
 12 13  1  0
 13 14  1  0
 14 15  1  1
 14 23  1  0
 15 16  1  0
 16 17  1  0
 17 18  2  0
 17 22  1  0
 18 19  1  0
 19 20  2  0
 20 21  1  0
 21 22  2  0
M  END
