
     RDKit          3D

 23 25  0  0  0  0  0  0  0  0999 V2000
    3.7550    3.8250    0.7390 C   0  0  0  0  0  0  0  0  0  0  0  0
    3.2900    2.4400    0.5570 C   0  0  0  0  0  0  0  0  0  0  0  0
    4.0880    1.4340    0.8050 C   0  0  0  0  0  0  0  0  0  0  0  0
    5.7160    1.7590    1.3540 Cl  0  0  0  0  0  0  0  0  0  0  0  0
    3.6430    0.0510    0.6290 C   0  0  0  0  0  0  0  0  0  0  0  0
    4.5120   -0.9810    0.9030 C   0  0  0  0  0  0  0  0  0  0  0  0
    4.1470   -2.3060    0.7540 C   0  0  0  0  0  0  0  0  0  0  0  0
    2.8740   -2.5800    0.3180 C   0  0  0  0  0  0  0  0  0  0  0  0
    2.5120   -3.9130    0.1690 C   0  0  0  0  0  0  0  0  0  0  0  0
    1.2400   -4.2260   -0.2680 C   0  0  0  0  0  0  0  0  0  0  0  0
    0.3750   -3.1870   -0.5410 C   0  0  0  0  0  0  0  0  0  0  0  0
    0.7130   -1.8510   -0.4000 C   0  0  0  0  0  0  0  0  0  0  0  0
   -0.1980   -0.8220   -0.6890 O   0  0  0  0  0  0  0  0  0  0  0  0
   -1.4870   -1.2070   -1.1340 C   0  0  0  0  0  0  0  0  0  0  0  0
   -2.3770   -0.0470   -1.4180 C   0  0  0  0  0  0  0  0  0  0  0  0
   -2.6250    0.8160   -0.2800 N   0  0  0  0  0  0  0  0  0  0  0  0
   -3.4070    0.1760    0.7200 C   0  0  0  0  0  0  0  0  0  0  0  0
   -4.5370    0.9700    1.2560 C   0  0  0  0  0  0  0  0  0  0  0  0
   -5.1540    1.8260    0.4590 C   0  0  0  0  0  0  0  0  0  0  0  0
   -4.6640    1.9350   -0.9390 C   0  0  0  0  0  0  0  0  0  0  0  0
   -3.1360    2.0490   -0.7970 C   0  0  0  0  0  0  0  0  0  0  0  0
    1.9970   -1.5450    0.0420 C   0  0  0  0  0  0  0  0  0  0  0  0
    2.4070   -0.2590    0.2050 N   0  0  0  0  0  0  0  0  0  0  0  0
  1  2  1  0
  2  3  2  3
  3  4  1  0
  3  5  1  0
  5  6  2  0
  5 23  1  0
  6  7  1  0
  7  8  2  0
  8  9  1  0
  8 22  1  0
  9 10  2  0
 10 11  1  0
 11 12  2  0
 12 13  1  0
 12 22  1  0
 13 14  1  0
 14 15  1  0
 15 16  1  0
 16 17  1  0
 16 21  1  0
 17 18  1  0
 18 19  2  0
 19 20  1  0
 20 21  1  0
 22 23  2  0
M  END
