
     RDKit          3D

 35 38  0  0  0  0  0  0  0  0999 V2000
   11.6740   -0.2150    0.4280 C   0  0  0  0  0  0  0  0  0  0  0  0
   10.2070   -0.1590    0.3200 C   0  0  0  0  0  0  0  0  0  0  0  0
    9.5270   -1.2630    0.0900 C   0  0  0  0  0  0  0  0  0  0  0  0
    8.0650   -1.2520   -0.0260 C   0  0  0  0  0  0  0  0  0  0  0  0
    7.3050   -0.1100    0.0950 C   0  0  0  0  0  0  0  0  0  0  0  0
    5.9660   -0.5060   -0.0780 C   0  0  0  0  0  0  0  0  0  0  0  0
    4.8780    0.4430   -0.0050 C   0  0  0  0  0  0  0  0  0  0  0  0
    5.1620    1.6840    0.0830 O   0  0  0  0  0  0  0  0  0  0  0  0
    3.4920    0.1500   -0.0180 N   0  0  0  0  0  0  0  0  0  0  0  0
    2.4990    1.2240    0.0590 C   0  0  2  0  0  0  0  0  0  0  0  0
    1.4960    0.9760    1.1540 C   0  0  0  0  0  0  0  0  0  0  0  0
    0.2410    0.2800    0.5640 C   0  0  0  0  0  0  0  0  0  0  0  0
   -0.4760    1.1470   -0.2990 N   0  0  0  0  0  0  0  0  0  0  0  0
   -1.8170    1.3350   -0.5010 C   0  0  0  0  0  0  0  0  0  0  0  0
   -1.9600    2.4780   -1.2350 O   0  0  0  0  0  0  0  0  0  0  0  0
   -3.0830    0.7290   -0.1810 C   0  0  0  0  0  0  0  0  0  0  0  0
   -4.2880    1.3280   -0.3680 C   0  0  0  0  0  0  0  0  0  0  0  0
   -4.3650    2.7130   -0.9180 C   0  0  0  0  0  0  0  0  0  0  0  0
   -5.8010    3.2090   -0.9330 C   0  0  0  0  0  0  0  0  0  0  0  0
   -6.7610    2.2060   -1.4840 C   0  0  0  0  0  0  0  0  0  0  0  0
   -7.4930    1.6100   -0.2960 C   0  0  0  0  0  0  0  0  0  0  0  0
   -6.5400    0.9530    0.6620 C   0  0  2  0  0  0  0  0  0  0  0  0
   -6.1330    1.7850    1.8250 C   0  0  0  0  0  0  0  0  0  0  0  0
   -5.3570    0.3860   -0.0910 C   0  0  2  0  0  0  0  0  0  0  0  0
   -4.7490   -0.6330    0.6960 N   0  0  0  0  0  0  0  0  0  0  0  0
   -3.3500   -0.5640    0.4760 C   0  0  0  0  0  0  0  0  0  0  0  0
   -2.4780   -1.5510    0.6410 C   0  0  0  0  0  0  0  0  0  0  0  0
   -2.5390   -2.8530    1.2450 C   0  0  0  0  0  0  0  0  0  0  0  0
   -3.8460   -3.4800    1.5790 C   0  0  0  0  0  0  0  0  0  0  0  0
   -4.7160   -3.7220    0.3730 C   0  0  0  0  0  0  0  0  0  0  0  0
    0.4750    1.9690   -1.1540 C   0  0  0  0  0  0  0  0  0  0  0  0
    1.7740    1.2350   -1.3020 C   0  0  0  0  0  0  0  0  0  0  0  0
    5.9810   -1.8560   -0.2930 C   0  0  0  0  0  0  0  0  0  0  0  0
    4.8280   -2.7380   -0.5400 C   0  0  0  0  0  0  0  0  0  0  0  0
    7.2700   -2.2900   -0.2580 N   0  0  0  0  0  0  0  0  0  0  0  0
  1  2  1  0
  2  3  2  3
  3  4  1  0
  4  5  2  0
  4 35  1  0
  5  6  1  0
  6  7  1  0
  6 33  2  0
  7  8  2  0
  7  9  1  0
 10  9  1  6
 10 11  1  0
 10 32  1  0
 11 12  1  0
 12 13  1  0
 13 14  1  0
 13 31  1  0
 14 15  2  0
 14 16  1  0
 16 17  2  0
 16 26  1  0
 17 18  1  0
 17 24  1  0
 18 19  1  0
 19 20  1  0
 20 21  1  0
 21 22  1  0
 22 23  1  1
 22 24  1  0
 24 25  1  1
 25 26  1  0
 26 27  2  3
 27 28  1  0
 28 29  1  0
 29 30  1  0
 31 32  1  0
 33 34  1  0
 33 35  1  0
M  END
