
     RDKit          3D

 34 37  0  0  0  0  0  0  0  0999 V2000
   -2.4700    1.0200    1.9750 C   0  0  0  0  0  0  0  0  0  0  0  0
   -1.5270   -0.0800    1.6540 C   0  0  0  0  0  0  0  0  0  0  0  0
   -1.3530   -1.0980    2.4680 C   0  0  0  0  0  0  0  0  0  0  0  0
   -0.4010   -2.1480    2.1310 C   0  0  0  0  0  0  0  0  0  0  0  0
    0.3520   -2.1410    1.0330 C   0  0  0  0  0  0  0  0  0  0  0  0
    1.2740   -3.2400    0.7390 C   0  0  0  0  0  0  0  0  0  0  0  0
    1.6620   -4.1140    1.7380 C   0  0  0  0  0  0  0  0  0  0  0  0
    2.4950   -5.2140    1.4830 C   0  0  0  0  0  0  0  0  0  0  0  0
    2.8350   -5.9930    2.3980 O   0  0  0  0  0  0  0  0  0  0  0  0
    2.9330   -5.4310    0.2310 N   0  0  0  0  0  0  0  0  0  0  0  0
    2.5750   -4.6130   -0.7350 N   0  0  0  0  0  0  0  0  0  0  0  0
    1.7610   -3.5300   -0.5150 C   0  0  0  0  0  0  0  0  0  0  0  0
    1.4830   -2.8360   -1.4970 O   0  0  0  0  0  0  0  0  0  0  0  0
    0.4290   -0.8540    0.2770 C   0  0  2  0  0  0  0  0  0  0  0  0
    1.4030   -0.0560    1.0860 N   0  0  0  0  0  0  0  0  0  0  0  0
    1.2850    1.3220    0.8110 C   0  0  0  0  0  0  0  0  0  0  0  0
    1.8800    1.8620   -0.4370 C   0  0  0  0  0  0  0  0  0  0  0  0
    3.3480    1.8900   -0.5080 C   0  0  0  0  0  0  0  0  0  0  0  0
    4.0110    3.1080   -0.1800 C   0  0  0  0  0  0  0  0  0  0  0  0
    5.3750    3.1390   -0.2130 C   0  0  0  0  0  0  0  0  0  0  0  0
    6.1290    2.0410   -0.5480 C   0  0  0  0  0  0  0  0  0  0  0  0
    5.4730    0.9210   -0.8490 N   0  0  0  0  0  0  0  0  0  0  0  0
    4.1080    0.8190   -0.8390 C   0  0  0  0  0  0  0  0  0  0  0  0
    3.5180   -0.4780   -1.2430 C   0  0  0  0  0  0  0  0  0  0  0  0
   -0.8780   -0.1370    0.3550 C   0  0  0  0  0  0  0  0  0  0  0  0
   -1.3960    0.3770   -0.7430 C   0  0  0  0  0  0  0  0  0  0  0  0
   -2.6320    1.0610   -0.9400 C   0  0  0  0  0  0  0  0  0  0  0  0
   -2.6630    2.3800   -1.4110 C   0  0  0  0  0  0  0  0  0  0  0  0
   -3.8300    3.0470   -1.6490 C   0  0  0  0  0  0  0  0  0  0  0  0
   -5.0490    2.4290   -1.4300 C   0  0  0  0  0  0  0  0  0  0  0  0
   -6.3150    3.1730   -1.7010 C   0  0  0  0  0  0  0  0  0  0  0  0
   -5.0430    1.1340   -0.9700 C   0  0  0  0  0  0  0  0  0  0  0  0
   -3.8500    0.4530   -0.7270 C   0  0  0  0  0  0  0  0  0  0  0  0
   -3.9770   -0.9610   -0.2970 C   0  0  0  0  0  0  0  0  0  0  0  0
  1  2  1  0
  2  3  2  0
  2 25  1  0
  3  4  1  0
  4  5  2  0
  5  6  1  0
  5 14  1  0
  6  7  2  0
  6 12  1  0
  7  8  1  0
  8  9  2  0
  8 10  1  0
 10 11  1  0
 11 12  1  0
 12 13  2  0
 14 15  1  1
 14 25  1  0
 15 16  1  0
 16 17  1  0
 17 18  1  0
 18 19  2  0
 18 23  1  0
 19 20  1  0
 20 21  2  0
 21 22  1  0
 22 23  2  0
 23 24  1  0
 25 26  2  3
 26 27  1  0
 27 28  2  0
 27 33  1  0
 28 29  1  0
 29 30  2  0
 30 31  1  0
 30 32  1  0
 32 33  2  0
 33 34  1  0
M  END
