
     RDKit          3D

 34 37  0  0  0  0  0  0  0  0999 V2000
    9.0170   -0.3140    0.4810 C   0  0  0  0  0  0  0  0  0  0  0  0
    8.1380   -0.3160   -0.7520 C   0  0  0  0  0  0  0  0  0  0  0  0
    6.7060   -0.3490   -0.3020 C   0  0  2  0  0  0  0  0  0  0  0  0
    6.3560   -1.5480    0.5160 C   0  0  0  0  0  0  0  0  0  0  0  0
    4.8780   -1.5660    0.7680 C   0  0  0  0  0  0  0  0  0  0  0  0
    4.2010   -0.2410    0.4750 C   0  0  0  0  0  0  0  0  0  0  0  0
    4.4880    0.1900   -0.8940 N   0  0  0  0  0  0  0  0  0  0  0  0
    3.5430    0.9870   -1.5750 C   0  0  0  0  0  0  0  0  0  0  0  0
    3.7950    1.3520   -2.7450 O   0  0  0  0  0  0  0  0  0  0  0  0
    2.2930    1.3920   -0.9510 C   0  0  0  0  0  0  0  0  0  0  0  0
    2.0330    2.5220   -0.2000 C   0  0  0  0  0  0  0  0  0  0  0  0
    0.7390    2.4620    0.1620 N   0  0  0  0  0  0  0  0  0  0  0  0
    0.1530    1.3730   -0.3050 N   0  0  0  0  0  0  0  0  0  0  0  0
   -1.2090    1.0040   -0.1060 C   0  0  0  0  0  0  0  0  0  0  0  0
   -2.2260    1.6330   -0.7940 C   0  0  0  0  0  0  0  0  0  0  0  0
   -3.5730    1.2930   -0.6200 C   0  0  0  0  0  0  0  0  0  0  0  0
   -3.9300    0.3130    0.2480 C   0  0  0  0  0  0  0  0  0  0  0  0
   -5.2550   -0.1270    0.4890 N   0  0  0  0  0  0  0  0  0  0  0  0
   -6.3370    0.1760   -0.3450 C   0  0  0  0  0  0  0  0  0  0  0  0
   -6.2230    0.8700   -1.4020 O   0  0  0  0  0  0  0  0  0  0  0  0
   -7.6760   -0.3280    0.0080 C   0  0  0  0  0  0  0  0  0  0  0  0
   -8.0210   -0.8290    1.2280 C   0  0  0  0  0  0  0  0  0  0  0  0
   -9.3000   -1.2950    1.4940 C   0  0  0  0  0  0  0  0  0  0  0  0
   -9.6370   -1.8000    2.7370 O   0  0  0  0  0  0  0  0  0  0  0  0
  -10.2490   -1.2560    0.5160 C   0  0  0  0  0  0  0  0  0  0  0  0
  -11.8930   -1.8290    0.7790 Cl  0  0  0  0  0  0  0  0  0  0  0  0
   -9.9370   -0.7590   -0.7260 C   0  0  0  0  0  0  0  0  0  0  0  0
  -11.1490   -0.7090   -1.9800 Cl  0  0  0  0  0  0  0  0  0  0  0  0
   -8.6480   -0.3000   -0.9600 C   0  0  0  0  0  0  0  0  0  0  0  0
   -2.8900   -0.3300    0.9520 C   0  0  0  0  0  0  0  0  0  0  0  0
   -1.5820    0.0170    0.7680 C   0  0  0  0  0  0  0  0  0  0  0  0
    1.0720    0.7050   -0.9830 C   0  0  0  0  0  0  0  0  0  0  0  0
    0.9660   -0.3850   -1.5980 O   0  0  0  0  0  0  0  0  0  0  0  0
    5.7370   -0.2380   -1.4610 C   0  0  0  0  0  0  0  0  0  0  0  0
  1  2  1  0
  3  2  1  6
  3  4  1  0
  3 34  1  0
  4  5  1  0
  5  6  1  0
  6  7  1  0
  7  8  1  0
  7 34  1  0
  8  9  2  0
  8 10  1  0
 10 11  2  0
 10 32  1  0
 11 12  1  0
 12 13  1  0
 13 14  1  0
 13 32  1  0
 14 15  2  0
 14 31  1  0
 15 16  1  0
 16 17  2  0
 17 18  1  0
 17 30  1  0
 18 19  1  0
 19 20  2  0
 19 21  1  0
 21 22  2  0
 21 29  1  0
 22 23  1  0
 23 24  1  0
 23 25  2  0
 25 26  1  0
 25 27  1  0
 27 28  1  0
 27 29  2  0
 30 31  2  0
 32 33  2  0
M  END
