
     RDKit          3D

 35 38  0  0  0  0  0  0  0  0999 V2000
   -0.5750   -3.8470   -1.2110 C   0  0  0  0  0  0  0  0  0  0  0  0
   -1.1510   -3.2850    0.0280 C   0  0  0  0  0  0  0  0  0  0  0  0
   -2.0650   -2.1660   -0.0840 C   0  0  0  0  0  0  0  0  0  0  0  0
   -3.3420   -2.4260   -0.5250 C   0  0  0  0  0  0  0  0  0  0  0  0
   -3.6670   -3.7780   -0.9150 C   0  0  0  0  0  0  0  0  0  0  0  0
   -4.2010   -4.8300   -0.0190 C   0  0  0  0  0  0  0  0  0  0  0  0
   -3.4850   -4.0960   -2.1140 O   0  0  0  0  0  0  0  0  0  0  0  0
   -4.3090   -1.4290   -0.6030 C   0  0  0  0  0  0  0  0  0  0  0  0
   -5.6700   -1.7700   -1.0860 C   0  0  0  0  0  0  0  0  0  0  0  0
   -3.9600   -0.1860   -0.2310 N   0  0  0  0  0  0  0  0  0  0  0  0
   -2.7320    0.1090    0.2020 C   0  0  0  0  0  0  0  0  0  0  0  0
   -2.4500    1.3190    0.5430 N   0  0  0  0  0  0  0  0  0  0  0  0
   -3.4080    2.3600    0.4750 C   0  0  0  0  0  0  0  0  0  0  0  0
   -3.7290    3.0140   -0.6910 C   0  0  0  0  0  0  0  0  0  0  0  0
   -4.6810    4.0330   -0.6760 C   0  0  0  0  0  0  0  0  0  0  0  0
   -5.2970    4.3800    0.5090 C   0  0  0  0  0  0  0  0  0  0  0  0
   -6.3070    5.4680    0.5040 C   0  0  0  0  0  0  0  0  0  0  0  0
   -4.9700    3.7210    1.6720 C   0  0  0  0  0  0  0  0  0  0  0  0
   -4.0280    2.7130    1.6570 C   0  0  0  0  0  0  0  0  0  0  0  0
   -1.7360   -0.8950    0.2860 C   0  0  0  0  0  0  0  0  0  0  0  0
   -0.4330   -0.4100    0.7010 C   0  0  0  0  0  0  0  0  0  0  0  0
   -0.4670    0.5550    1.5590 O   0  0  0  0  0  0  0  0  0  0  0  0
    0.8140   -0.8430    0.2930 N   0  0  0  0  0  0  0  0  0  0  0  0
    2.0690   -0.3370    0.7550 C   0  0  0  0  0  0  0  0  0  0  0  0
    2.2640    0.3900    1.8910 C   0  0  0  0  0  0  0  0  0  0  0  0
    3.5480    0.8540    2.2250 C   0  0  0  0  0  0  0  0  0  0  0  0
    4.6530    0.6070    1.4440 C   0  0  0  0  0  0  0  0  0  0  0  0
    4.4590   -0.1270    0.2960 C   0  0  0  0  0  0  0  0  0  0  0  0
    3.1990   -0.5850   -0.0360 C   0  0  0  0  0  0  0  0  0  0  0  0
    5.6160   -0.4230   -0.5890 C   0  0  0  0  0  0  0  0  0  0  0  0
    6.8910   -0.2380   -0.0070 N   0  0  0  0  0  0  0  0  0  0  0  0
    7.8650    0.4450   -0.7920 C   0  0  0  0  0  0  0  0  0  0  0  0
    7.5930    1.8940   -1.0360 C   0  0  0  0  0  0  0  0  0  0  0  0
    6.9570   -0.0270    1.3950 C   0  0  0  0  0  0  0  0  0  0  0  0
    6.0110    1.0980    1.7980 C   0  0  0  0  0  0  0  0  0  0  0  0
  1  2  1  0
  2  3  1  0
  3  4  1  0
  3 20  2  0
  4  5  1  0
  4  8  2  0
  5  6  1  0
  5  7  2  0
  8  9  1  0
  8 10  1  0
 10 11  1  0
 11 12  2  3
 11 20  1  0
 12 13  1  0
 13 14  2  0
 13 19  1  0
 14 15  1  0
 15 16  2  0
 16 17  1  0
 16 18  1  0
 18 19  2  0
 20 21  1  0
 21 22  2  0
 21 23  1  0
 23 24  1  0
 24 25  2  0
 24 29  1  0
 25 26  1  0
 26 27  2  0
 27 28  1  0
 27 35  1  0
 28 29  2  0
 28 30  1  0
 30 31  1  0
 31 32  1  0
 31 34  1  0
 32 33  1  0
 34 35  1  0
M  END
