
     RDKit          3D

 34 37  0  0  0  0  0  0  0  0999 V2000
   -3.5050    3.8530    1.2680 C   0  0  0  0  0  0  0  0  0  0  0  0
   -3.3980    3.1510   -0.0030 N   0  0  0  0  0  0  0  0  0  0  0  0
   -3.8400    3.6240   -1.1550 N   0  0  0  0  0  0  0  0  0  0  0  0
   -3.5940    2.7540   -2.1110 N   0  0  0  0  0  0  0  0  0  0  0  0
   -2.9750    1.7010   -1.5270 C   0  0  0  0  0  0  0  0  0  0  0  0
   -2.5410    0.5150   -2.3150 C   0  0  0  0  0  0  0  0  0  0  0  0
   -2.0270   -0.5560   -1.5060 N   0  0  0  0  0  0  0  0  0  0  0  0
   -2.9340   -1.5900   -1.0740 C   0  0  0  0  0  0  0  0  0  0  0  0
   -3.6690   -1.2670    0.1690 C   0  0  0  0  0  0  0  0  0  0  0  0
   -3.0870   -0.9030    1.3540 C   0  0  0  0  0  0  0  0  0  0  0  0
   -3.8520   -0.6200    2.4930 C   0  0  0  0  0  0  0  0  0  0  0  0
   -5.2270   -0.6970    2.4710 C   0  0  0  0  0  0  0  0  0  0  0  0
   -6.0210   -0.4150    3.6220 N   0  0  0  0  0  0  0  0  0  0  0  0
   -5.8270   -1.0630    1.2810 C   0  0  0  0  0  0  0  0  0  0  0  0
   -5.0700   -1.3400    0.1650 C   0  0  0  0  0  0  0  0  0  0  0  0
   -0.6750   -0.6000   -1.1380 C   0  0  0  0  0  0  0  0  0  0  0  0
   -0.2070   -1.5660   -0.4420 O   0  0  0  0  0  0  0  0  0  0  0  0
    0.2050    0.4420   -1.5390 N   0  0  0  0  0  0  0  0  0  0  0  0
    1.6190    0.3520   -1.1340 C   0  0  0  0  0  0  0  0  0  0  0  0
    2.2440   -0.8660   -1.6920 C   0  0  0  0  0  0  0  0  0  0  0  0
    1.4770   -1.5720   -2.4320 O   0  0  0  0  0  0  0  0  0  0  0  0
    3.5510   -1.3170   -1.4960 N   0  0  0  0  0  0  0  0  0  0  0  0
    4.0300   -2.5750   -2.1360 C   0  0  0  0  0  0  0  0  0  0  0  0
    5.0000   -3.1710   -1.1630 C   0  0  0  0  0  0  0  0  0  0  0  0
    4.9650   -2.2160    0.0130 C   0  0  0  0  0  0  0  0  0  0  0  0
    4.7070   -0.8890   -0.7480 C   0  0  2  0  0  0  0  0  0  0  0  0
    4.5390    0.1650    0.2180 C   0  0  0  0  0  0  0  0  0  0  0  0
    4.2780    0.0270    1.5620 C   0  0  0  0  0  0  0  0  0  0  0  0
    4.1110    1.0730    2.4390 C   0  0  0  0  0  0  0  0  0  0  0  0
    4.2090    2.3580    1.9530 C   0  0  0  0  0  0  0  0  0  0  0  0
    4.4720    2.5510    0.6020 C   0  0  0  0  0  0  0  0  0  0  0  0
    4.6340    1.4800   -0.2470 C   0  0  0  0  0  0  0  0  0  0  0  0
    5.0170    1.8530   -2.0810 Br  0  0  0  0  0  0  0  0  0  0  0  0
   -2.8660    1.9670   -0.2340 N   0  0  0  0  0  0  0  0  0  0  0  0
  1  2  1  0
  2  3  1  0
  2 34  1  0
  3  4  2  0
  4  5  1  0
  5  6  1  0
  5 34  2  0
  6  7  1  0
  7  8  1  0
  7 16  1  0
  8  9  1  0
  9 10  2  0
  9 15  1  0
 10 11  1  0
 11 12  2  0
 12 13  1  0
 12 14  1  0
 14 15  2  0
 16 17  2  0
 16 18  1  0
 18 19  1  0
 19 20  1  0
 20 21  2  0
 20 22  1  0
 22 23  1  0
 22 26  1  0
 23 24  1  0
 24 25  1  0
 25 26  1  0
 26 27  1  1
 27 28  2  0
 27 32  1  0
 28 29  1  0
 29 30  2  0
 30 31  1  0
 31 32  2  0
 32 33  1  0
M  END
