
     RDKit          3D

 23 24  0  0  0  0  0  0  0  0999 V2000
   -3.2310    1.7730   -1.5170 N   0  0  0  0  0  0  0  0  0  0  0  0
   -2.8240    0.9380   -0.3980 C   0  0  1  0  0  0  0  0  0  0  0  0
   -3.9840    0.7600    0.4410 N   0  0  0  0  0  0  0  0  0  0  0  0
   -4.3370   -0.4670    0.5070 C   0  0  0  0  0  0  0  0  0  0  0  0
   -5.6960   -1.1420    1.4140 S   0  0  1  0  0  0  0  0  0  0  0  0
   -6.9870   -0.8640    0.6850 O   0  0  0  0  0  0  0  0  0  0  0  0
   -5.4850   -2.6140    1.5990 O   0  0  0  0  0  0  0  0  0  0  0  0
   -3.4160   -1.2440   -0.3090 C   0  0  0  0  0  0  0  0  0  0  0  0
   -2.5200   -0.4410   -0.8490 C   0  0  0  0  0  0  0  0  0  0  0  0
   -1.4290   -0.9050   -1.7420 C   0  0  0  0  0  0  0  0  0  0  0  0
   -0.1250   -0.6010   -1.2170 N   0  0  0  0  0  0  0  0  0  0  0  0
    0.3530   -1.0830    0.0290 C   0  0  0  0  0  0  0  0  0  0  0  0
   -0.4200   -1.8160    0.6980 O   0  0  0  0  0  0  0  0  0  0  0  0
    1.7040   -0.7590    0.5550 C   0  0  0  0  0  0  0  0  0  0  0  0
    2.4370    0.0630   -0.3050 O   0  0  0  0  0  0  0  0  0  0  0  0
    3.7120    0.4400    0.0670 C   0  0  0  0  0  0  0  0  0  0  0  0
    4.2580    0.0390    1.2250 N   0  0  0  0  0  0  0  0  0  0  0  0
    5.4960    0.4190    1.5610 N   0  0  0  0  0  0  0  0  0  0  0  0
    6.2310    1.2180    0.7430 C   0  0  0  0  0  0  0  0  0  0  0  0
    7.4090    1.5560    1.1040 O   0  0  0  0  0  0  0  0  0  0  0  0
    5.7170    1.6380   -0.4230 N   0  0  0  0  0  0  0  0  0  0  0  0
    4.4800    1.2510   -0.7460 C   0  0  0  0  0  0  0  0  0  0  0  0
    3.9800    1.6300   -1.8260 O   0  0  0  0  0  0  0  0  0  0  0  0
  2  1  1  6
  2  3  1  0
  2  9  1  0
  3  4  2  0
  5  4  1  6
  4  8  1  0
  5  6  2  0
  5  7  2  0
  8  9  2  0
  9 10  1  0
 10 11  1  0
 11 12  1  0
 12 13  2  0
 12 14  1  0
 14 15  1  0
 15 16  1  0
 16 17  2  0
 16 22  1  0
 17 18  1  0
 18 19  1  0
 19 20  2  0
 19 21  1  0
 21 22  1  0
 22 23  2  0
M  END
