
     RDKit          3D

 20 20  0  0  0  0  0  0  0  0999 V2000
   -3.2960    0.5270    1.1640 C   0  0  0  0  0  0  0  0  0  0  0  0
   -2.0300    0.9320    0.5060 C   0  0  2  0  0  0  0  0  0  0  0  0
   -1.5050    2.1600    1.2500 C   0  0  0  0  0  0  0  0  0  0  0  0
   -0.3270    2.6450    0.7390 O   0  0  0  0  0  0  0  0  0  0  0  0
   -2.2260    1.1990   -0.9460 C   0  0  0  0  0  0  0  0  0  0  0  0
   -2.8730    0.1250   -1.5080 O   0  0  0  0  0  0  0  0  0  0  0  0
   -2.4540   -1.0930   -1.0580 C   0  0  1  0  0  0  0  0  0  0  0  0
   -2.5470   -2.0710   -2.1610 N   0  0  0  0  0  0  0  0  0  0  0  0
   -1.0090   -1.0450   -0.5690 C   0  0  0  0  0  0  0  0  0  0  0  0
   -0.9150   -0.1370    0.6110 C   0  0  2  0  0  0  0  0  0  0  0  0
   -1.1270   -0.8590    1.8080 O   0  0  0  0  0  0  0  0  0  0  0  0
    0.2370    0.5640    0.6530 O   0  0  0  0  0  0  0  0  0  0  0  0
    1.4480    0.0760    0.8280 C   0  0  0  0  0  0  0  0  0  0  0  0
    2.0770   -0.8240   -0.1880 C   0  0  1  0  0  0  0  0  0  0  0  0
    2.2290   -0.2290   -1.4230 O   0  0  0  0  0  0  0  0  0  0  0  0
    3.4600   -1.2860    0.2990 C   0  0  0  0  0  0  0  0  0  0  0  0
    4.3960   -0.3110    0.4710 O   0  0  0  0  0  0  0  0  0  0  0  0
    4.9700    0.5230   -0.4500 C   0  0  0  0  0  0  0  0  0  0  0  0
    4.6370    0.4260   -1.6490 O   0  0  0  0  0  0  0  0  0  0  0  0
    5.9300    1.4910   -0.0730 O   0  0  0  0  0  0  0  0  0  0  0  0
  2  1  1  1
  2  3  1  0
  2  5  1  0
  2 10  1  0
  3  4  1  0
  5  6  1  0
  6  7  1  0
  7  8  1  6
  7  9  1  0
  9 10  1  0
 10 11  1  1
 10 12  1  0
 12 13  1  0
 13 14  1  0
 14 15  1  6
 14 16  1  0
 16 17  1  0
 17 18  1  0
 18 19  2  0
 18 20  1  0
M  END
