
     RDKit          3D

 24 25  0  0  0  0  0  0  0  0999 V2000
   -7.6730    1.1010    1.9910 N   0  0  0  0  0  0  0  0  0  0  0  0
   -6.7300    0.1560    1.4030 C   0  0  0  0  0  0  0  0  0  0  0  0
   -7.2410   -1.3980    1.2550 S   0  0  0  0  0  0  0  0  0  0  0  0
   -5.4750    0.6550    1.0020 C   0  0  0  0  0  0  0  0  0  0  0  0
   -4.9290    1.6790    1.0270 O   0  0  0  0  0  0  0  0  0  0  0  0
   -4.4880   -0.5980    0.2620 N   0  0  0  0  0  0  0  0  0  0  0  0
   -3.4100    0.1790   -0.0200 C   0  0  0  0  0  0  0  0  0  0  0  0
   -2.9710    1.2570    0.4090 O   0  0  0  0  0  0  0  0  0  0  0  0
   -2.5370   -0.4620   -1.0800 N   0  0  0  0  0  0  0  0  0  0  0  0
   -1.3490    0.1440   -1.2810 N   0  0  0  0  0  0  0  0  0  0  0  0
   -0.2720   -0.3640   -0.2700 C   0  0  0  0  0  0  0  0  0  0  0  0
   -0.6590   -1.2190    0.4820 O   0  0  0  0  0  0  0  0  0  0  0  0
    0.9000    0.3190   -0.5050 N   0  0  0  0  0  0  0  0  0  0  0  0
    1.9910   -0.7830    0.3250 C   0  0  0  0  0  0  0  0  0  0  0  0
    1.3910   -1.5760    0.9350 O   0  0  0  0  0  0  0  0  0  0  0  0
    3.3350   -0.4630    0.0470 C   0  0  0  0  0  0  0  0  0  0  0  0
    3.9270    0.4850   -0.6610 C   0  0  0  0  0  0  0  0  0  0  0  0
    5.3740    0.3590   -0.6430 C   0  0  0  0  0  0  0  0  0  0  0  0
    6.6120    0.6030   -1.0030 C   0  0  0  0  0  0  0  0  0  0  0  0
    6.9540    1.7850   -2.2790 Cl  0  0  0  0  0  0  0  0  0  0  0  0
    7.5320   -0.1690   -0.2730 O   0  0  0  0  0  0  0  0  0  0  0  0
    6.7650   -1.3300    0.0990 N   0  0  0  0  0  0  0  0  0  0  0  0
    5.5720   -0.6370    0.5260 C   0  0  2  0  0  0  0  0  0  0  0  0
    4.3710   -1.3000    0.5910 O   0  0  0  0  0  0  0  0  0  0  0  0
  1  2  1  0
  2  3  2  0
  2  4  1  0
  4  5  2  0
  4  6  1  0
  6  7  1  0
  7  8  2  0
  7  9  1  0
  9 10  1  0
 10 11  1  0
 11 12  2  0
 11 13  1  0
 13 14  1  0
 14 15  2  0
 14 16  1  0
 16 17  2  0
 16 24  1  0
 17 18  1  0
 18 19  2  0
 18 23  1  0
 19 20  1  0
 19 21  1  0
 21 22  1  0
 23 22  1  6
 23 24  1  0
M  END
