
     RDKit          3D

 24 25  0  0  0  0  0  0  0  0999 V2000
   -5.8900    1.0030    0.8580 N   0  0  0  0  0  0  0  0  0  0  0  0
   -4.5280    1.1500    0.4940 C   0  0  0  0  0  0  0  0  0  0  0  0
   -3.8930    2.2050    0.6730 O   0  0  0  0  0  0  0  0  0  0  0  0
   -3.8570   -0.0200   -0.1250 C   0  0  1  0  0  0  0  0  0  0  0  0
   -2.5030    0.2910   -0.4290 N   0  0  0  0  0  0  0  0  0  0  0  0
   -1.4410   -0.3060   -0.0230 C   0  0  0  0  0  0  0  0  0  0  0  0
   -0.1490    0.1670   -0.4480 C   0  0  0  0  0  0  0  0  0  0  0  0
   -0.1620    1.1690   -1.2170 O   0  0  0  0  0  0  0  0  0  0  0  0
    1.1090   -0.3370   -0.1220 N   0  0  0  0  0  0  0  0  0  0  0  0
    2.3730    0.1110   -0.5270 C   0  0  0  0  0  0  0  0  0  0  0  0
    3.5700   -0.5060   -0.1110 C   0  0  0  0  0  0  0  0  0  0  0  0
    3.7100   -1.8990    0.9520 Cl  0  0  0  0  0  0  0  0  0  0  0  0
    4.6130    0.1140   -0.6370 N   0  0  0  0  0  0  0  0  0  0  0  0
    5.9900   -0.2530   -0.4220 C   0  0  0  0  0  0  0  0  0  0  0  0
    6.2960   -1.2090    0.2980 O   0  0  0  0  0  0  0  0  0  0  0  0
    7.2670    0.7050   -1.2190 S   0  0  0  0  0  0  0  0  0  0  0  0
    4.1690    1.1070   -1.3780 N   0  0  0  0  0  0  0  0  0  0  0  0
    2.8070    1.1250   -1.3270 C   0  0  0  0  0  0  0  0  0  0  0  0
    2.1040    1.9370   -1.9160 O   0  0  0  0  0  0  0  0  0  0  0  0
   -1.6130   -1.4370    0.8540 C   0  0  0  0  0  0  0  0  0  0  0  0
   -0.6650   -2.1150    1.3290 O   0  0  0  0  0  0  0  0  0  0  0  0
   -2.9350   -1.8860    1.2630 N   0  0  0  0  0  0  0  0  0  0  0  0
   -4.0320   -1.1690    0.7660 C   0  0  0  0  0  0  0  0  0  0  0  0
   -5.2010   -1.5070    1.0810 O   0  0  0  0  0  0  0  0  0  0  0  0
  1  2  1  0
  2  3  2  0
  4  2  1  1
  4  5  1  0
  4 23  1  0
  5  6  2  0
  6  7  1  0
  6 20  1  0
  7  8  2  0
  7  9  1  0
  9 10  1  0
 10 11  2  0
 10 18  1  0
 11 12  1  0
 11 13  1  0
 13 14  1  0
 13 17  1  0
 14 15  2  0
 14 16  1  0
 17 18  1  0
 18 19  2  0
 20 21  2  0
 20 22  1  0
 22 23  1  0
 23 24  2  0
M  END
