
     RDKit          3D

 24 25  0  0  0  0  0  0  0  0999 V2000
    6.7670    1.8960    1.1210 N   0  0  0  0  0  0  0  0  0  0  0  0
    5.8110    1.2700    0.2980 C   0  0  0  0  0  0  0  0  0  0  0  0
    5.6560    1.6890   -0.8990 O   0  0  0  0  0  0  0  0  0  0  0  0
    4.9920    0.1930    0.7000 N   0  0  0  0  0  0  0  0  0  0  0  0
    4.0370   -0.4390   -0.1010 N   0  0  0  0  0  0  0  0  0  0  0  0
    3.0380    0.2770   -0.8130 C   0  0  0  0  0  0  0  0  0  0  0  0
    3.0420    1.5280   -0.7080 O   0  0  0  0  0  0  0  0  0  0  0  0
    2.0110   -0.4220   -1.6620 C   0  0  2  0  0  0  0  0  0  0  0  0
    1.2060    0.6020   -2.2040 O   0  0  0  0  0  0  0  0  0  0  0  0
   -0.0740    0.4300   -1.7150 C   0  0  0  0  0  0  0  0  0  0  0  0
   -1.0880    1.1740   -1.9810 O   0  0  0  0  0  0  0  0  0  0  0  0
   -0.0860   -0.7240   -0.8560 C   0  0  0  0  0  0  0  0  0  0  0  0
   -1.2440   -1.2800   -0.1020 C   0  0  0  0  0  0  0  0  0  0  0  0
   -1.0870   -2.3030    0.6190 O   0  0  0  0  0  0  0  0  0  0  0  0
   -2.5330   -0.7240   -0.1400 N   0  0  0  0  0  0  0  0  0  0  0  0
   -3.6510   -1.2720    0.6060 C   0  0  0  0  0  0  0  0  0  0  0  0
   -4.8720   -0.4700    0.4010 C   0  0  0  0  0  0  0  0  0  0  0  0
   -5.9330   -0.2160    1.1830 N   0  0  0  0  0  0  0  0  0  0  0  0
   -6.8800    0.5100    0.8250 N   0  0  0  0  0  0  0  0  0  0  0  0
   -6.9290    1.1010   -0.3680 C   0  0  0  0  0  0  0  0  0  0  0  0
   -7.6810    1.8180   -0.9530 O   0  0  0  0  0  0  0  0  0  0  0  0
   -5.3050    0.4650   -1.0450 S   0  0  0  0  0  0  0  0  0  0  0  0
    1.1190   -1.2370   -0.8140 C   0  0  0  0  0  0  0  0  0  0  0  0
    1.6320   -2.6470    0.0800 Cl  0  0  0  0  0  0  0  0  0  0  0  0
  1  2  1  0
  2  3  2  0
  2  4  1  0
  4  5  1  0
  5  6  1  0
  6  7  2  0
  8  6  1  1
  8  9  1  0
  8 23  1  0
  9 10  1  0
 10 11  2  0
 10 12  1  0
 12 13  1  0
 12 23  2  0
 13 14  2  0
 13 15  1  0
 15 16  1  0
 16 17  1  0
 17 18  2  0
 17 22  1  0
 18 19  1  0
 19 20  1  0
 20 21  2  0
 20 22  1  0
 23 24  1  0
M  END
