
     RDKit          3D

 23 24  0  0  0  0  0  0  0  0999 V2000
    0.3500   -0.4090   -2.1190 N   0  0  0  0  0  0  0  0  0  0  0  0
   -0.9280   -0.6800   -1.6190 C   0  0  0  0  0  0  0  0  0  0  0  0
   -1.7930   -1.1340   -2.4400 O   0  0  0  0  0  0  0  0  0  0  0  0
   -1.3110   -0.4620   -0.1830 C   0  0  1  0  0  0  0  0  0  0  0  0
   -0.3280   -1.2700    0.6810 C   0  0  0  0  0  0  0  0  0  0  0  0
    0.3910   -2.2490   -0.1810 C   0  0  0  0  0  0  0  0  0  0  0  0
   -0.3000   -3.1300   -0.7480 O   0  0  0  0  0  0  0  0  0  0  0  0
    1.8010   -2.1910   -0.3570 N   0  0  0  0  0  0  0  0  0  0  0  0
    2.6380   -1.5850    0.6690 C   0  0  0  0  0  0  0  0  0  0  0  0
    3.2380   -0.2930    0.2190 C   0  0  0  0  0  0  0  0  0  0  0  0
    4.2940   -0.5070   -0.7170 O   0  0  0  0  0  0  0  0  0  0  0  0
    2.9320    0.8480    0.5530 N   0  0  0  0  0  0  0  0  0  0  0  0
    2.1220    1.6120    1.3050 N   0  0  0  0  0  0  0  0  0  0  0  0
    1.2960    2.6670    0.8250 N   0  0  0  0  0  0  0  0  0  0  0  0
    0.4830    2.6600   -0.3050 C   0  0  0  0  0  0  0  0  0  0  0  0
    0.6680    3.6160   -1.1540 O   0  0  0  0  0  0  0  0  0  0  0  0
   -0.5310    1.7430   -0.6580 N   0  0  0  0  0  0  0  0  0  0  0  0
   -1.2890    0.9240    0.2710 C   0  0  1  0  0  0  0  0  0  0  0  0
   -2.6630    1.5220    0.3660 C   0  0  0  0  0  0  0  0  0  0  0  0
   -3.6270    0.0940    0.8810 S   0  0  2  0  0  0  0  0  0  0  0  0
   -5.0100    0.1480    0.3560 O   0  0  0  0  0  0  0  0  0  0  0  0
   -3.5780   -0.0900    2.3600 O   0  0  0  0  0  0  0  0  0  0  0  0
   -2.6400   -1.1260    0.0360 C   0  0  0  0  0  0  0  0  0  0  0  0
  1  2  1  0
  2  3  2  0
  4  2  1  6
  4  5  1  0
  4 18  1  0
  4 23  1  0
  5  6  1  0
  6  7  2  0
  6  8  1  0
  8  9  1  0
  9 10  1  0
 10 11  1  0
 10 12  2  0
 12 13  1  0
 13 14  1  0
 14 15  1  0
 15 16  2  0
 15 17  1  0
 17 18  1  0
 18 19  1  6
 20 19  1  1
 20 21  2  0
 20 22  2  0
 20 23  1  0
M  END
