
     RDKit          3D

 28 32  0  0  0  0  0  0  0  0999 V2000
    7.1120    1.4840   -0.4340 C   0  0  0  0  0  0  0  0  0  0  0  0
    5.9880    0.6220    0.0970 C   0  0  1  0  0  0  0  0  0  0  0  0
    4.8200    1.5050    0.3930 C   0  0  0  0  0  0  0  0  0  0  0  0
    3.5640    0.8150    0.5100 N   0  0  0  0  0  0  0  0  0  0  0  0
    2.4580    1.7480    0.4010 C   0  0  0  0  0  0  0  0  0  0  0  0
    1.1920    1.0270    0.5860 C   0  0  0  0  0  0  0  0  0  0  0  0
   -0.0880    1.3850    0.1520 C   0  0  0  0  0  0  0  0  0  0  0  0
   -0.9800    0.4170    0.5600 C   0  0  0  0  0  0  0  0  0  0  0  0
   -0.2460   -0.5300    1.2420 C   0  0  0  0  0  0  0  0  0  0  0  0
   -0.8900   -1.6340    1.7730 C   0  0  0  0  0  0  0  0  0  0  0  0
   -2.2280   -1.8360    1.6560 C   0  0  0  0  0  0  0  0  0  0  0  0
   -2.9660   -0.8790    0.9670 C   0  0  0  0  0  0  0  0  0  0  0  0
   -4.3410   -1.0170    0.8060 C   0  0  0  0  0  0  0  0  0  0  0  0
   -5.0910   -0.0860    0.1310 C   0  0  0  0  0  0  0  0  0  0  0  0
   -6.5220   -0.2200   -0.0420 C   0  0  0  0  0  0  0  0  0  0  0  0
   -7.2260   -1.2820    0.4550 C   0  0  0  0  0  0  0  0  0  0  0  0
   -8.6090   -1.3920    0.2760 C   0  0  0  0  0  0  0  0  0  0  0  0
   -9.2740   -0.4010   -0.4200 C   0  0  0  0  0  0  0  0  0  0  0  0
   -8.5340    0.6590   -0.9100 C   0  0  0  0  0  0  0  0  0  0  0  0
   -7.1950    0.7270   -0.7140 N   0  0  0  0  0  0  0  0  0  0  0  0
   -4.3920    1.0080   -0.3850 C   0  0  0  0  0  0  0  0  0  0  0  0
   -3.0660    1.1560   -0.2380 N   0  0  0  0  0  0  0  0  0  0  0  0
   -2.3560    0.2290    0.4280 C   0  0  0  0  0  0  0  0  0  0  0  0
    1.0560   -0.1380    1.2420 N   0  0  0  0  0  0  0  0  0  0  0  0
    3.4000   -0.3200   -0.3310 C   0  0  0  0  0  0  0  0  0  0  0  0
    4.3860   -0.2150   -1.4740 C   0  0  0  0  0  0  0  0  0  0  0  0
    5.7070   -0.3880   -0.8960 N   0  0  0  0  0  0  0  0  0  0  0  0
    5.7630   -1.7220   -0.3290 C   0  0  0  0  0  0  0  0  0  0  0  0
  2  1  1  6
  2  3  1  0
  2 27  1  0
  3  4  1  0
  4  5  1  0
  4 25  1  0
  5  6  1  0
  6  7  2  0
  6 24  1  0
  7  8  1  0
  8  9  2  0
  8 23  1  0
  9 10  1  0
  9 24  1  0
 10 11  2  0
 11 12  1  0
 12 13  2  0
 12 23  1  0
 13 14  1  0
 14 15  1  0
 14 21  2  0
 15 16  2  0
 15 20  1  0
 16 17  1  0
 17 18  2  0
 18 19  1  0
 19 20  2  0
 21 22  1  0
 22 23  2  0
 25 26  1  0
 26 27  1  0
 27 28  1  0
M  END
