
     RDKit          3D

 28 32  0  0  0  0  0  0  0  0999 V2000
   -4.3420   -0.5090   -2.3650 C   0  0  0  0  0  0  0  0  0  0  0  0
   -4.3820   -0.7510   -0.8750 C   0  0  2  0  0  0  0  0  0  0  0  0
   -5.7950   -0.9080   -0.3640 C   0  0  0  0  0  0  0  0  0  0  0  0
   -5.6880   -1.2030    1.1160 C   0  0  0  0  0  0  0  0  0  0  0  0
   -4.2520   -1.3380    1.5620 C   0  0  0  0  0  0  0  0  0  0  0  0
   -3.4030   -0.1490    1.2650 C   0  0  1  0  0  0  0  0  0  0  0  0
   -1.9960   -0.5110    1.1450 N   0  0  0  0  0  0  0  0  0  0  0  0
   -0.9660    0.4240    0.9480 C   0  0  0  0  0  0  0  0  0  0  0  0
   -1.1940    1.7810    0.9660 C   0  0  0  0  0  0  0  0  0  0  0  0
   -0.1540    2.6820    0.7610 C   0  0  0  0  0  0  0  0  0  0  0  0
    1.1340    2.2040    0.5350 C   0  0  0  0  0  0  0  0  0  0  0  0
    2.1740    3.0680    0.3300 C   0  0  0  0  0  0  0  0  0  0  0  0
    3.4650    2.6240    0.1030 C   0  0  0  0  0  0  0  0  0  0  0  0
    4.4990    3.4690   -0.1010 N   0  0  0  0  0  0  0  0  0  0  0  0
    5.7370    3.0050   -0.3200 C   0  0  0  0  0  0  0  0  0  0  0  0
    5.9470    1.6250   -0.3340 C   0  0  0  0  0  0  0  0  0  0  0  0
    4.9170    0.7390   -0.1300 C   0  0  0  0  0  0  0  0  0  0  0  0
    5.1210   -0.7070   -0.1430 C   0  0  0  0  0  0  0  0  0  0  0  0
    6.3690   -1.1670   -0.3650 N   0  0  0  0  0  0  0  0  0  0  0  0
    6.6410   -2.4700   -0.3920 C   0  0  0  0  0  0  0  0  0  0  0  0
    5.6300   -3.3800   -0.1890 C   0  0  0  0  0  0  0  0  0  0  0  0
    4.3510   -2.9130    0.0390 C   0  0  0  0  0  0  0  0  0  0  0  0
    4.1430   -1.5840    0.0540 N   0  0  0  0  0  0  0  0  0  0  0  0
    3.6520    1.2370    0.0920 C   0  0  0  0  0  0  0  0  0  0  0  0
    2.6380    0.3780    0.2930 N   0  0  0  0  0  0  0  0  0  0  0  0
    1.3830    0.8540    0.5130 C   0  0  0  0  0  0  0  0  0  0  0  0
    0.3160    0.0100    0.7220 C   0  0  0  0  0  0  0  0  0  0  0  0
   -3.7770    0.4190   -0.1090 C   0  0  0  0  0  0  0  0  0  0  0  0
  2  1  1  6
  2  3  1  0
  2 28  1  0
  3  4  1  0
  4  5  1  0
  5  6  1  0
  6  7  1  6
  6 28  1  0
  7  8  1  0
  8  9  2  0
  8 27  1  0
  9 10  1  0
 10 11  2  0
 11 12  1  0
 11 26  1  0
 12 13  2  0
 13 14  1  0
 13 24  1  0
 14 15  2  0
 15 16  1  0
 16 17  2  0
 17 18  1  0
 17 24  1  0
 18 19  2  0
 18 23  1  0
 19 20  1  0
 20 21  2  0
 21 22  1  0
 22 23  2  0
 24 25  2  0
 25 26  1  0
 26 27  2  0
M  END
