
     RDKit          3D

 28 32  0  0  0  0  0  0  0  0999 V2000
   -2.7730   -1.1530    2.7760 C   0  0  0  0  0  0  0  0  0  0  0  0
   -1.7000   -0.3080    2.1090 C   0  0  0  0  0  0  0  0  0  0  0  0
   -2.0540    0.0620    0.7260 N   0  0  0  0  0  0  0  0  0  0  0  0
   -3.2980    0.6780    0.5980 C   0  0  0  0  0  0  0  0  0  0  0  0
   -3.2910    2.0450    0.2610 C   0  0  0  0  0  0  0  0  0  0  0  0
   -4.4350    2.7740    0.1500 C   0  0  0  0  0  0  0  0  0  0  0  0
   -5.6310    2.2210    0.3580 N   0  0  0  0  0  0  0  0  0  0  0  0
   -5.6600    0.9220    0.6790 C   0  0  0  0  0  0  0  0  0  0  0  0
   -4.5400    0.1410    0.8040 C   0  0  0  0  0  0  0  0  0  0  0  0
   -1.0540   -0.1380   -0.2280 C   0  0  0  0  0  0  0  0  0  0  0  0
    0.3040    0.0290    0.1820 C   0  0  0  0  0  0  0  0  0  0  0  0
    1.3530   -0.1010   -0.6620 C   0  0  0  0  0  0  0  0  0  0  0  0
    2.7430    0.0670   -0.1980 C   0  0  0  0  0  0  0  0  0  0  0  0
    3.1150    0.3890    1.0520 N   0  0  0  0  0  0  0  0  0  0  0  0
    4.4700    0.4550    1.1220 C   0  0  0  0  0  0  0  0  0  0  0  0
    5.3870    0.7260    2.1000 C   0  0  0  0  0  0  0  0  0  0  0  0
    6.7470    0.7020    1.8230 C   0  0  0  0  0  0  0  0  0  0  0  0
    7.2120    0.4060    0.5610 C   0  0  0  0  0  0  0  0  0  0  0  0
    6.3050    0.1300   -0.4390 C   0  0  0  0  0  0  0  0  0  0  0  0
    4.9590    0.1600   -0.1400 C   0  0  0  0  0  0  0  0  0  0  0  0
    3.8720   -0.0640   -0.8890 N   0  0  0  0  0  0  0  0  0  0  0  0
    1.1020   -0.4040   -1.9680 C   0  0  0  0  0  0  0  0  0  0  0  0
   -0.1830   -0.5850   -2.4620 C   0  0  0  0  0  0  0  0  0  0  0  0
   -0.4100   -0.8800   -3.7260 N   0  0  0  0  0  0  0  0  0  0  0  0
   -1.6370   -1.0630   -4.2210 C   0  0  0  0  0  0  0  0  0  0  0  0
   -2.7360   -0.9420   -3.3910 C   0  0  0  0  0  0  0  0  0  0  0  0
   -2.5150   -0.6280   -2.0420 C   0  0  0  0  0  0  0  0  0  0  0  0
   -1.2430   -0.4430   -1.5520 C   0  0  0  0  0  0  0  0  0  0  0  0
  1  2  1  0
  2  3  1  0
  3  4  1  0
  3 10  1  0
  4  5  2  0
  4  9  1  0
  5  6  1  0
  6  7  2  0
  7  8  1  0
  8  9  2  0
 10 11  2  0
 10 28  1  0
 11 12  1  0
 12 13  1  0
 12 22  2  0
 13 14  2  0
 13 21  1  0
 14 15  1  0
 15 16  2  0
 15 20  1  0
 16 17  1  0
 17 18  2  0
 18 19  1  0
 19 20  2  0
 20 21  1  0
 22 23  1  0
 23 24  2  0
 23 28  1  0
 24 25  1  0
 25 26  2  0
 26 27  1  0
 27 28  2  0
M  END
