
     RDKit          3D

 28 32  0  0  0  0  0  0  0  0999 V2000
   -6.5440    0.9770    1.4000 C   0  0  0  0  0  0  0  0  0  0  0  0
   -5.5620    0.0030    0.8260 C   0  0  0  0  0  0  0  0  0  0  0  0
   -5.6080   -1.2750    1.3250 C   0  0  0  0  0  0  0  0  0  0  0  0
   -4.7550   -2.2240    0.8620 C   0  0  0  0  0  0  0  0  0  0  0  0
   -3.8440   -1.8900   -0.1120 C   0  0  0  0  0  0  0  0  0  0  0  0
   -3.7770   -0.6180   -0.6290 C   0  0  0  0  0  0  0  0  0  0  0  0
   -2.8350   -0.2250   -1.6530 C   0  0  0  0  0  0  0  0  0  0  0  0
   -1.9600   -1.0390   -2.1840 C   0  0  0  0  0  0  0  0  0  0  0  0
   -0.9970   -0.6150   -3.2400 C   0  0  0  0  0  0  0  0  0  0  0  0
    0.4130   -0.8410   -2.7470 C   0  0  0  0  0  0  0  0  0  0  0  0
    0.6910   -0.0500   -1.4970 C   0  0  0  0  0  0  0  0  0  0  0  0
   -0.2580    0.7250   -0.9710 N   0  0  0  0  0  0  0  0  0  0  0  0
   -0.1320    1.4760    0.1350 C   0  0  0  0  0  0  0  0  0  0  0  0
    1.1070    1.4240    0.7720 C   0  0  0  0  0  0  0  0  0  0  0  0
    2.0900    0.6160    0.2210 C   0  0  0  0  0  0  0  0  0  0  0  0
    1.8850   -0.1070   -0.8920 N   0  0  0  0  0  0  0  0  0  0  0  0
    3.3800    0.5210    0.8290 N   0  0  0  0  0  0  0  0  0  0  0  0
    3.6360    1.2110    1.9270 C   0  0  0  0  0  0  0  0  0  0  0  0
    4.9190    0.9390    2.2860 N   0  0  0  0  0  0  0  0  0  0  0  0
    5.4440    0.0760    1.3970 C   0  0  0  0  0  0  0  0  0  0  0  0
    6.6690   -0.5420    1.2460 C   0  0  0  0  0  0  0  0  0  0  0  0
    6.9590   -1.4100    0.2150 C   0  0  0  0  0  0  0  0  0  0  0  0
    5.9620   -1.6700   -0.7140 C   0  0  0  0  0  0  0  0  0  0  0  0
    4.7270   -1.0670   -0.5890 C   0  0  0  0  0  0  0  0  0  0  0  0
    4.4710   -0.2030    0.4550 C   0  0  0  0  0  0  0  0  0  0  0  0
    2.6440    2.0400    2.5020 N   0  0  0  0  0  0  0  0  0  0  0  0
    1.3260    2.2130    1.9850 C   0  0  0  0  0  0  0  0  0  0  0  0
   -4.6680    0.3450   -0.1350 C   0  0  0  0  0  0  0  0  0  0  0  0
  1  2  1  0
  2  3  2  0
  2 28  1  0
  3  4  1  0
  4  5  2  0
  5  6  1  0
  6  7  1  0
  6 28  2  0
  7  8  2  3
  8  9  1  0
  9 10  1  0
 10 11  1  0
 11 12  2  0
 11 16  1  0
 12 13  1  0
 13 14  2  0
 14 15  1  0
 14 27  1  0
 15 16  2  0
 15 17  1  0
 17 18  1  0
 17 25  1  0
 18 19  2  0
 18 26  1  0
 19 20  1  0
 20 21  2  0
 20 25  1  0
 21 22  1  0
 22 23  2  0
 23 24  1  0
 24 25  2  0
 26 27  1  0
M  END
