
     RDKit          3D

 18 19  0  0  0  0  0  0  0  0999 V2000
    4.2620    1.0490   -0.2470 C   0  0  0  0  0  0  0  0  0  0  0  0
    2.8680    0.8880   -0.0870 O   0  0  0  0  0  0  0  0  0  0  0  0
    2.1640   -0.2190   -0.5060 C   0  0  0  0  0  0  0  0  0  0  0  0
    2.7850   -1.1500   -1.0680 O   0  0  0  0  0  0  0  0  0  0  0  0
    0.7250   -0.3580   -0.3280 C   0  0  0  0  0  0  0  0  0  0  0  0
   -0.0160   -1.3880   -0.7030 C   0  0  0  0  0  0  0  0  0  0  0  0
    0.4560   -2.5230   -1.3380 O   0  0  0  0  0  0  0  0  0  0  0  0
   -1.4250   -1.1760   -0.3580 C   0  0  0  0  0  0  0  0  0  0  0  0
   -2.6470   -1.6920   -0.4000 C   0  0  0  0  0  0  0  0  0  0  0  0
   -3.0800   -3.2510   -1.0870 Cl  0  0  0  0  0  0  0  0  0  0  0  0
   -3.6080   -0.7650    0.2170 C   0  0  0  0  0  0  0  0  0  0  0  0
   -2.8360    0.4360    0.6710 C   0  0  0  0  0  0  0  0  0  0  0  0
   -1.4350    0.1380    0.2850 C   0  0  0  0  0  0  0  0  0  0  0  0
   -0.1970    0.6040    0.3000 C   0  0  0  0  0  0  0  0  0  0  0  0
    0.2260    1.9000    0.8590 C   0  0  2  0  0  0  0  0  0  0  0  0
    1.1610    1.7260    1.8770 F   0  0  0  0  0  0  0  0  0  0  0  0
   -0.8340    2.5780    1.4340 F   0  0  0  0  0  0  0  0  0  0  0  0
    0.9490    2.9720   -0.3560 Cl  0  0  0  0  0  0  0  0  0  0  0  0
  1  2  1  0
  2  3  1  0
  3  4  2  0
  3  5  1  0
  5  6  2  0
  5 14  1  0
  6  7  1  0
  6  8  1  0
  8  9  2  0
  8 13  1  0
  9 10  1  0
  9 11  1  0
 11 12  1  0
 12 13  1  0
 13 14  2  0
 14 15  1  0
 15 16  1  1
 15 17  1  0
 15 18  1  0
M  END
