
     RDKit          3D

 18 19  0  0  0  0  0  0  0  0999 V2000
    3.9460   -0.8420    0.8000 N   0  0  0  0  0  0  0  0  0  0  0  0
    2.9180   -0.8790   -0.2090 C   0  0  2  0  0  0  0  0  0  0  0  0
    3.4450    0.2030   -1.5440 Cl  0  0  0  0  0  0  0  0  0  0  0  0
    1.6380   -0.4470    0.2930 N   0  0  0  0  0  0  0  0  0  0  0  0
    0.6580   -0.1270   -0.4300 C   0  0  0  0  0  0  0  0  0  0  0  0
    0.5450   -0.1040   -1.9320 C   0  0  0  0  0  0  0  0  0  0  0  0
   -0.8400   -0.7000   -2.1500 C   0  0  0  0  0  0  0  0  0  0  0  0
   -1.6160   -0.0330   -1.0320 C   0  0  0  0  0  0  0  0  0  0  0  0
   -2.8680    0.2020   -0.9950 N   0  0  0  0  0  0  0  0  0  0  0  0
   -3.6670    0.8150    0.0010 C   0  0  1  0  0  0  0  0  0  0  0  0
   -5.0170   -0.3160    0.4670 S   0  0  0  0  0  0  0  0  0  0  0  0
   -2.7190    1.3190    1.4490 S   0  0  0  0  0  0  0  0  0  0  0  0
   -1.0150    0.9050    1.1590 C   0  0  0  0  0  0  0  0  0  0  0  0
    0.0040    1.2510    2.1990 C   0  0  0  0  0  0  0  0  0  0  0  0
   -0.0970    2.6610    2.3220 O   0  0  0  0  0  0  0  0  0  0  0  0
   -0.6650    0.3070    0.0280 C   0  0  0  0  0  0  0  0  0  0  0  0
    2.8520   -2.1550   -0.7340 O   0  0  0  0  0  0  0  0  0  0  0  0
    2.5720   -3.0780    0.1420 F   0  0  0  0  0  0  0  0  0  0  0  0
  2  1  1  1
  2  3  1  0
  2  4  1  0
  2 17  1  0
  4  5  2  3
  5  6  1  0
  5 16  1  0
  6  7  1  0
  7  8  1  0
  8  9  2  0
  8 16  1  0
  9 10  1  0
 10 11  1  1
 10 12  1  0
 12 13  1  0
 13 14  1  0
 13 16  2  0
 14 15  1  0
 17 18  1  0
M  END
