
     RDKit          3D

 18 20  0  0  0  0  0  0  0  0999 V2000
   -3.0910    0.9030    2.0100 N   0  0  0  0  0  0  0  0  0  0  0  0
   -1.9020    1.4280    1.4910 C   0  0  0  0  0  0  0  0  0  0  0  0
   -1.2800    2.2400    2.2650 O   0  0  0  0  0  0  0  0  0  0  0  0
   -1.3030    1.1540    0.1810 C   0  0  2  0  0  0  0  0  0  0  0  0
   -2.1540    1.4520   -0.9980 C   0  0  0  0  0  0  0  0  0  0  0  0
   -3.2310    0.4800   -1.3130 C   0  0  0  0  0  0  0  0  0  0  0  0
   -2.7730   -0.9590   -1.2570 C   0  0  0  0  0  0  0  0  0  0  0  0
   -2.0330   -1.2580    0.0320 C   0  0  0  0  0  0  0  0  0  0  0  0
   -0.9130   -0.3100    0.1670 C   0  0  0  0  0  0  0  0  0  0  0  0
    0.3670   -0.6350    0.2730 C   0  0  0  0  0  0  0  0  0  0  0  0
    1.4850    0.2380    0.4050 N   0  0  0  0  0  0  0  0  0  0  0  0
    2.5750   -0.4160    0.4830 C   0  0  0  0  0  0  0  0  0  0  0  0
    3.9760    0.1130    0.6300 C   0  0  1  0  0  0  0  0  0  0  0  0
    4.8690   -0.3080   -0.5310 C   0  0  0  0  0  0  0  0  0  0  0  0
    4.5020    1.1270   -0.2800 C   0  0  0  0  0  0  0  0  0  0  0  0
    2.3460   -1.8200    0.4160 N   0  0  0  0  0  0  0  0  0  0  0  0
    0.9110   -1.9700    0.2790 C   0  0  0  0  0  0  0  0  0  0  0  0
    0.3750   -3.1020    0.1920 O   0  0  0  0  0  0  0  0  0  0  0  0
  1  2  1  0
  2  3  2  0
  4  2  1  1
  4  5  1  0
  4  9  1  0
  5  6  1  0
  6  7  1  0
  7  8  1  0
  8  9  1  0
  9 10  2  3
 10 11  1  0
 10 17  1  0
 11 12  2  0
 13 12  1  6
 12 16  1  0
 13 14  1  0
 13 15  1  0
 14 15  1  0
 16 17  1  0
 17 18  2  0
M  END
