
     RDKit          3D

 26 29  0  0  0  0  0  0  0  0999 V2000
   -5.6480    2.4970    0.5290 N   0  0  0  0  0  0  0  0  0  0  0  0
   -6.1340    1.1630    0.2500 C   0  0  0  0  0  0  0  0  0  0  0  0
   -5.0350    0.1880    0.0450 C   0  0  0  0  0  0  0  0  0  0  0  0
   -3.6560    0.4080    0.0880 C   0  0  0  0  0  0  0  0  0  0  0  0
   -3.0420   -0.7950   -0.1650 C   0  0  0  0  0  0  0  0  0  0  0  0
   -1.5780   -1.0680   -0.2240 C   0  0  0  0  0  0  0  0  0  0  0  0
   -1.2330   -2.2350   -0.4750 O   0  0  0  0  0  0  0  0  0  0  0  0
   -0.6600   -0.0570   -0.0060 N   0  0  0  0  0  0  0  0  0  0  0  0
    0.7370   -0.2130   -0.0430 C   0  0  0  0  0  0  0  0  0  0  0  0
    1.4470   -1.2980   -0.4450 C   0  0  0  0  0  0  0  0  0  0  0  0
    2.8370   -1.3740   -0.4380 C   0  0  0  0  0  0  0  0  0  0  0  0
    3.5480   -0.2900    0.0000 C   0  0  0  0  0  0  0  0  0  0  0  0
    2.8530    0.8480    0.4220 C   0  0  0  0  0  0  0  0  0  0  0  0
    3.5840    1.9410    0.8640 C   0  0  0  0  0  0  0  0  0  0  0  0
    4.9400    1.9790    0.9150 C   0  0  0  0  0  0  0  0  0  0  0  0
    5.6210    0.8400    0.4920 C   0  0  0  0  0  0  0  0  0  0  0  0
    6.9990    0.8270    0.5230 C   0  0  0  0  0  0  0  0  0  0  0  0
    7.6870   -0.2930    0.1080 C   0  0  0  0  0  0  0  0  0  0  0  0
    7.0180   -1.4080   -0.3410 C   0  0  0  0  0  0  0  0  0  0  0  0
    5.6150   -1.4090   -0.3780 C   0  0  0  0  0  0  0  0  0  0  0  0
    4.9480   -0.2800    0.0410 C   0  0  0  0  0  0  0  0  0  0  0  0
    1.4860    0.8730    0.3960 C   0  0  0  0  0  0  0  0  0  0  0  0
   -4.0180   -1.6890   -0.3500 N   0  0  0  0  0  0  0  0  0  0  0  0
   -5.2360   -1.1330   -0.2310 C   0  0  0  0  0  0  0  0  0  0  0  0
   -6.5420   -1.8560   -0.3790 C   0  0  0  0  0  0  0  0  0  0  0  0
   -7.2960   -1.4910   -1.9490 Cl  0  0  0  0  0  0  0  0  0  0  0  0
  1  2  1  0
  2  3  1  0
  3  4  1  0
  3 24  2  0
  4  5  2  0
  5  6  1  0
  5 23  1  0
  6  7  2  0
  6  8  1  0
  8  9  1  0
  9 10  2  0
  9 22  1  0
 10 11  1  0
 11 12  2  0
 12 13  1  0
 12 21  1  0
 13 14  1  0
 13 22  2  0
 14 15  2  0
 15 16  1  0
 16 17  2  0
 16 21  1  0
 17 18  1  0
 18 19  2  0
 19 20  1  0
 20 21  2  0
 23 24  1  0
 24 25  1  0
 25 26  1  0
M  CHG  1   1   1
M  END
