
     RDKit          3D

 26 28  0  0  0  0  0  0  0  0999 V2000
   -5.1260    3.1220   -0.6770 C   0  0  0  0  0  0  0  0  0  0  0  0
   -5.3270    1.8310   -0.2650 C   0  0  0  0  0  0  0  0  0  0  0  0
   -4.1350    1.0540   -0.1070 C   0  0  0  0  0  0  0  0  0  0  0  0
   -3.9010   -0.1710    0.2510 C   0  0  0  0  0  0  0  0  0  0  0  0
   -4.9080   -1.1460    0.6180 C   0  0  0  0  0  0  0  0  0  0  0  0
   -4.5180   -1.9810    1.8180 C   0  0  0  0  0  0  0  0  0  0  0  0
   -3.1080   -1.9730    2.2240 C   0  0  0  0  0  0  0  0  0  0  0  0
   -2.0990   -1.4760    1.2850 C   0  0  0  0  0  0  0  0  0  0  0  0
   -0.7590   -1.8170    1.3340 C   0  0  0  0  0  0  0  0  0  0  0  0
    0.1410   -1.2810    0.4070 C   0  0  0  0  0  0  0  0  0  0  0  0
    1.4970   -1.5210    0.4640 C   0  0  0  0  0  0  0  0  0  0  0  0
    1.8900   -2.3250    1.3640 O   0  0  0  0  0  0  0  0  0  0  0  0
    2.3650   -0.9020   -0.4300 C   0  0  0  0  0  0  0  0  0  0  0  0
    3.8190   -0.9790   -0.1630 C   0  0  0  0  0  0  0  0  0  0  0  0
    4.6030   -0.2960   -1.1580 N   0  0  0  0  0  0  0  0  0  0  0  0
    5.5150    0.6410   -0.6020 C   0  0  0  0  0  0  0  0  0  0  0  0
    6.6640    0.1440    0.2060 C   0  0  0  0  0  0  0  0  0  0  0  0
    7.4300    1.3070    0.7160 N   0  0  0  0  0  0  0  0  0  0  0  0
    1.9330   -0.0480   -1.4060 C   0  0  0  0  0  0  0  0  0  0  0  0
    2.7930    0.6620   -2.4020 C   0  0  0  0  0  0  0  0  0  0  0  0
    0.5920    0.1770   -1.4470 N   0  0  0  0  0  0  0  0  0  0  0  0
   -0.2550   -0.4060   -0.5810 C   0  0  0  0  0  0  0  0  0  0  0  0
   -1.6030   -0.0550   -0.6360 C   0  0  0  0  0  0  0  0  0  0  0  0
   -2.4710   -0.5910    0.2840 C   0  0  0  0  0  0  0  0  0  0  0  0
   -6.7440    1.4380   -0.0620 C   0  0  0  0  0  0  0  0  0  0  0  0
   -7.7760    2.8710   -0.5300 Cl  0  0  0  0  0  0  0  0  0  0  0  0
  1  2  2  0
  2  3  1  0
  2 25  1  0
  3  4  2  3
  4  5  1  0
  4 24  1  0
  5  6  1  0
  6  7  1  0
  7  8  1  0
  8  9  2  0
  8 24  1  0
  9 10  1  0
 10 11  1  0
 10 22  2  0
 11 12  2  0
 11 13  1  0
 13 14  1  0
 13 19  2  0
 14 15  1  0
 15 16  1  0
 16 17  1  0
 17 18  1  0
 19 20  1  0
 19 21  1  0
 21 22  1  0
 22 23  1  0
 23 24  2  0
 25 26  1  0
M  CHG  1  18   1
M  END
