
     RDKit          3D

 19 19  0  0  0  0  0  0  0  0999 V2000
    4.8090   -0.0990   -2.8000 C   0  0  0  0  0  0  0  0  0  0  0  0
    4.6020   -0.7630   -1.5690 O   0  0  0  0  0  0  0  0  0  0  0  0
    3.5600   -0.2720   -0.7630 C   0  0  0  0  0  0  0  0  0  0  0  0
    2.8650    0.7050   -1.1370 O   0  0  0  0  0  0  0  0  0  0  0  0
    3.2570   -0.8580    0.4950 N   0  0  0  0  0  0  0  0  0  0  0  0
    2.2110   -0.4160    1.3770 C   0  0  0  0  0  0  0  0  0  0  0  0
    0.8640   -0.4910    0.7540 C   0  0  0  0  0  0  0  0  0  0  0  0
    0.7500   -0.9070   -0.4360 O   0  0  0  0  0  0  0  0  0  0  0  0
   -0.2820   -0.1120    1.4580 N   0  0  0  0  0  0  0  0  0  0  0  0
   -1.6270   -0.1460    0.9110 C   0  0  0  0  0  0  0  0  0  0  0  0
   -2.4110   -1.0440    1.4140 C   0  0  0  0  0  0  0  0  0  0  0  0
   -3.8010   -1.3050    1.0610 C   0  0  0  0  0  0  0  0  0  0  0  0
   -3.9790   -2.6280    0.5830 O   0  0  0  0  0  0  0  0  0  0  0  0
   -1.9440    0.8180   -0.1350 C   0  0  0  0  0  0  0  0  0  0  0  0
   -1.0830    1.7060   -0.5530 C   0  0  0  0  0  0  0  0  0  0  0  0
    0.2150    2.0100   -0.2180 O   0  0  0  0  0  0  0  0  0  0  0  0
   -1.9230    2.6630   -1.8440 S   0  0  0  0  0  0  0  0  0  0  0  0
   -3.5710    1.9560   -1.4190 C   0  0  0  0  0  0  0  0  0  0  0  0
   -3.1550    0.8470   -0.7360 O   0  0  0  0  0  0  0  0  0  0  0  0
  1  2  1  0
  2  3  1  0
  3  4  2  0
  3  5  1  0
  5  6  1  0
  6  7  1  0
  7  8  2  0
  7  9  1  0
  9 10  1  0
 10 11  2  3
 10 14  1  0
 11 12  1  0
 12 13  1  0
 14 15  2  0
 14 19  1  0
 15 16  1  0
 15 17  1  0
 17 18  1  0
 18 19  1  0
M  END
