
     RDKit          3D

 19 20  0  0  0  0  0  0  0  0999 V2000
   -1.5990    2.9580   -0.3970 C   0  0  0  0  0  0  0  0  0  0  0  0
   -1.5200    2.3220   -1.7720 C   0  0  0  0  0  0  0  0  0  0  0  0
   -2.1990    0.6780   -1.7400 S   0  0  1  0  0  0  0  0  0  0  0  0
   -1.0930   -0.4590   -0.6950 C   0  0  0  0  0  0  0  0  0  0  0  0
    0.0480    0.1850   -0.2710 N   0  0  0  0  0  0  0  0  0  0  0  0
    1.1400   -0.1020    0.5170 C   0  0  0  0  0  0  0  0  0  0  0  0
    1.3250   -1.1550    1.0800 O   0  0  0  0  0  0  0  0  0  0  0  0
    2.1760    1.0020    0.6740 C   0  0  1  0  0  0  0  0  0  0  0  0
    3.1660    0.5220    1.4850 O   0  0  0  0  0  0  0  0  0  0  0  0
    4.2030    0.1020    0.6230 C   0  0  0  0  0  0  0  0  0  0  0  0
    4.0960    1.1640   -0.4550 C   0  0  0  0  0  0  0  0  0  0  0  0
    2.7230    1.3210   -0.5520 O   0  0  0  0  0  0  0  0  0  0  0  0
   -1.6620   -1.6030   -0.5700 C   0  0  0  0  0  0  0  0  0  0  0  0
   -1.2510   -2.7870    0.1070 C   0  0  0  0  0  0  0  0  0  0  0  0
   -2.1590   -3.9410    0.0640 N   0  0  0  0  0  0  0  0  0  0  0  0
   -0.2430   -3.0050    0.7310 O   0  0  0  0  0  0  0  0  0  0  0  0
   -3.0090   -1.7860   -1.2340 C   0  0  0  0  0  0  0  0  0  0  0  0
   -3.5100   -0.8620   -1.8590 O   0  0  0  0  0  0  0  0  0  0  0  0
   -3.6920   -2.9920   -1.1480 O   0  0  0  0  0  0  0  0  0  0  0  0
  1  2  1  0
  2  3  1  0
  3  4  1  0
  4  5  1  0
  4 13  2  0
  5  6  1  0
  6  7  2  0
  8  6  1  6
  8  9  1  0
  8 12  1  0
  9 10  1  0
 10 11  1  0
 11 12  1  0
 13 14  1  0
 13 17  1  0
 14 15  1  0
 14 16  2  0
 17 18  2  0
 17 19  1  0
 18  3  1  0
M  END
