
     RDKit          3D

 19 19  0  0  0  0  0  0  0  0999 V2000
    5.8870   -0.4490    1.7180 C   0  0  0  0  0  0  0  0  0  0  0  0
    4.6780   -0.3230    1.1980 C   0  0  0  0  0  0  0  0  0  0  0  0
    3.8060   -1.5000    1.0740 C   0  0  0  0  0  0  0  0  0  0  0  0
    2.5970   -1.3640    0.5570 C   0  0  0  0  0  0  0  0  0  0  0  0
    1.7330   -2.5020    0.4270 C   0  0  0  0  0  0  0  0  0  0  0  0
    0.5320   -2.3820   -0.0860 C   0  0  0  0  0  0  0  0  0  0  0  0
    0.0840   -1.1490   -0.5100 O   0  0  0  0  0  0  0  0  0  0  0  0
    0.3990   -0.5250   -1.7330 C   0  0  0  0  0  0  0  0  0  0  0  0
   -0.3000    0.7980   -1.7870 C   0  0  0  0  0  0  0  0  0  0  0  0
   -0.1100    1.5990   -2.7310 O   0  0  0  0  0  0  0  0  0  0  0  0
   -1.1920    1.1090   -0.7270 N   0  0  0  0  0  0  0  0  0  0  0  0
   -1.9100    2.3720   -0.7090 C   0  0  1  0  0  0  0  0  0  0  0  0
   -3.3880    2.0790   -1.0510 C   0  0  0  0  0  0  0  0  0  0  0  0
   -4.1060    2.2130    0.2850 C   0  0  0  0  0  0  0  0  0  0  0  0
   -3.3120    3.3770    0.8960 C   0  0  0  0  0  0  0  0  0  0  0  0
   -1.9060    2.8680    0.7070 C   0  0  0  0  0  0  0  0  0  0  0  0
   -0.3160   -3.5830   -0.1970 C   0  0  0  0  0  0  0  0  0  0  0  0
    0.1220   -4.8600    0.2320 N   0  0  0  0  0  0  0  0  0  0  0  0
   -1.4640   -3.4870   -0.6840 O   0  0  0  0  0  0  0  0  0  0  0  0
  1  2  2  0
  2  3  1  0
  3  4  2  3
  4  5  1  0
  5  6  2  3
  6  7  1  0
  6 17  1  0
  7  8  1  0
  8  9  1  0
  9 10  2  0
  9 11  1  0
 12 11  1  1
 12 13  1  0
 12 16  1  0
 13 14  1  0
 14 15  1  0
 15 16  1  0
 17 18  1  0
 17 19  2  0
M  END
