
     RDKit          3D

 12 12  0  0  0  0  0  0  0  0999 V2000
   -2.6800    2.1040   -1.3350 O   0  0  0  0  0  0  0  0  0  0  0  0
   -2.0360    0.8700   -1.6250 C   0  0  0  0  0  0  0  0  0  0  0  0
   -2.0200    0.0900   -0.3940 C   0  0  0  0  0  0  0  0  0  0  0  0
   -1.0900   -0.4110    0.3500 C   0  0  0  0  0  0  0  0  0  0  0  0
   -1.5750   -1.1820    1.5800 C   0  0  0  0  0  0  0  0  0  0  0  0
   -0.9530   -0.2560    2.9880 Cl  0  0  0  0  0  0  0  0  0  0  0  0
    0.3460   -0.3000    0.2090 C   0  0  0  0  0  0  0  0  0  0  0  0
    1.1430   -0.9410    1.0740 C   0  0  0  0  0  0  0  0  0  0  0  0
    2.6090   -0.8220    0.9280 C   0  0  0  0  0  0  0  0  0  0  0  0
    2.8350    0.5630    0.7340 O   0  0  0  0  0  0  0  0  0  0  0  0
    2.4970    0.7330   -0.6080 C   0  0  0  0  0  0  0  0  0  0  0  0
    1.0020    0.5210   -0.8310 C   0  0  0  0  0  0  0  0  0  0  0  0
  1  2  1  0
  2  3  1  0
  3  4  2  3
  4  5  1  0
  4  7  1  0
  5  6  1  0
  7  8  2  0
  7 12  1  0
  8  9  1  0
  9 10  1  0
 10 11  1  0
 11 12  1  0
M  END
