
     RDKit          3D

 10 10  0  0  0  0  0  0  0  0999 V2000
    1.8310   -2.1880   -0.6250 O   0  0  0  0  0  0  0  0  0  0  0  0
    0.9600   -1.2850   -0.3890 C   0  0  0  0  0  0  0  0  0  0  0  0
   -0.4260   -1.5260   -0.4770 N   0  0  0  0  0  0  0  0  0  0  0  0
   -1.2970   -0.6250   -0.2420 C   0  0  0  0  0  0  0  0  0  0  0  0
   -3.0330   -1.0610   -0.3900 Cl  0  0  0  0  0  0  0  0  0  0  0  0
   -0.9330    0.7420    0.1420 C   0  0  1  0  0  0  0  0  0  0  0  0
   -1.7170    1.0910    1.7370 Cl  0  0  0  0  0  0  0  0  0  0  0  0
    0.5040    0.9700    0.2280 C   0  0  0  0  0  0  0  0  0  0  0  0
    1.4020    0.0470   -0.0130 C   0  0  0  0  0  0  0  0  0  0  0  0
    3.1350    0.3700    0.1050 Cl  0  0  0  0  0  0  0  0  0  0  0  0
  1  2  2  0
  2  3  1  0
  2  9  1  0
  3  4  2  0
  4  5  1  0
  4  6  1  0
  6  7  1  1
  6  8  1  0
  8  9  2  0
  9 10  1  0
M  END
