
     RDKit          3D

 12 12  0  0  0  0  0  0  0  0999 V2000
    3.6290   -0.0470   -0.4310 C   0  0  0  0  0  0  0  0  0  0  0  0
    3.0610    0.3200    0.9080 C   0  0  0  0  0  0  0  0  0  0  0  0
    1.6240   -0.1390    1.0560 C   0  0  0  0  0  0  0  0  0  0  0  0
    0.8050    0.4700    0.0450 O   0  0  0  0  0  0  0  0  0  0  0  0
   -0.5710    0.1560    0.0290 C   0  0  0  0  0  0  0  0  0  0  0  0
   -1.1010   -0.5600   -0.9170 C   0  0  0  0  0  0  0  0  0  0  0  0
   -2.5230   -0.9100   -0.9730 C   0  0  0  0  0  0  0  0  0  0  0  0
   -3.3590   -0.3930    0.1370 C   0  0  0  0  0  0  0  0  0  0  0  0
   -2.6480    0.3970    1.1370 C   0  0  0  0  0  0  0  0  0  0  0  0
   -3.5970    1.0430    2.4880 Cl  0  0  0  0  0  0  0  0  0  0  0  0
   -1.3600    0.6810    1.1350 C   0  0  0  0  0  0  0  0  0  0  0  0
   -0.7700    1.4380    2.1250 O   0  0  0  0  0  0  0  0  0  0  0  0
  1  2  1  0
  2  3  1  0
  3  4  1  0
  4  5  1  0
  5  6  2  0
  5 11  1  0
  6  7  1  0
  7  8  1  0
  8  9  1  0
  9 10  1  0
  9 11  2  0
 11 12  1  0
M  END
