
     RDKit          3D

 12 12  0  0  0  0  0  0  0  0999 V2000
    4.0220   -0.3340   -0.1960 C   0  0  0  0  0  0  0  0  0  0  0  0
    3.2580   -0.1160    0.9080 O   0  0  0  0  0  0  0  0  0  0  0  0
    2.0390    0.4580    0.7150 C   0  0  0  0  0  0  0  0  0  0  0  0
    1.1520   -0.3710   -0.1650 C   0  0  0  0  0  0  0  0  0  0  0  0
   -0.2110    0.2790   -0.3540 C   0  0  2  0  0  0  0  0  0  0  0  0
   -0.0870    1.5370   -0.9450 O   0  0  0  0  0  0  0  0  0  0  0  0
   -0.8420    0.5010    1.0030 C   0  0  0  0  0  0  0  0  0  0  0  0
   -2.2890    0.8770    0.7500 C   0  0  0  0  0  0  0  0  0  0  0  0
   -3.0530   -0.1950    0.0440 C   0  0  0  0  0  0  0  0  0  0  0  0
   -2.1720   -1.2840   -0.5100 C   0  0  2  0  0  0  0  0  0  0  0  0
   -1.6760   -2.4660    0.6890 Cl  0  0  0  0  0  0  0  0  0  0  0  0
   -1.0190   -0.6400   -1.2290 C   0  0  0  0  0  0  0  0  0  0  0  0
  1  2  1  0
  2  3  1  0
  3  4  1  0
  4  5  1  0
  5  6  1  6
  5  7  1  0
  5 12  1  0
  7  8  1  0
  8  9  1  0
  9 10  1  0
 10 11  1  1
 10 12  1  0
M  END
