
     RDKit          3D

 12 12  0  0  0  0  0  0  0  0999 V2000
    4.1110    0.8490    0.2700 C   0  0  0  0  0  0  0  0  0  0  0  0
    3.1890   -0.1730   -0.3780 C   0  0  0  0  0  0  0  0  0  0  0  0
    1.7650    0.2020    0.0310 C   0  0  0  0  0  0  0  0  0  0  0  0
    0.8580   -0.7060   -0.5360 O   0  0  0  0  0  0  0  0  0  0  0  0
   -0.4990   -0.5640   -0.3010 C   0  0  0  0  0  0  0  0  0  0  0  0
   -1.3110   -0.1680   -1.2410 C   0  0  0  0  0  0  0  0  0  0  0  0
   -2.7560    0.0110   -1.0880 C   0  0  2  0  0  0  0  0  0  0  0  0
   -3.0870    1.3230   -1.4970 O   0  0  0  0  0  0  0  0  0  0  0  0
   -3.2950   -0.2950    0.2640 C   0  0  0  0  0  0  0  0  0  0  0  0
   -2.3000   -0.7330    1.2550 C   0  0  0  0  0  0  0  0  0  0  0  0
   -1.0130   -0.8620    1.0120 C   0  0  0  0  0  0  0  0  0  0  0  0
    0.0460   -1.4020    2.3200 Cl  0  0  0  0  0  0  0  0  0  0  0  0
  1  2  1  0
  2  3  1  0
  3  4  1  0
  4  5  1  0
  5  6  2  0
  5 11  1  0
  6  7  1  0
  7  8  1  1
  7  9  1  0
  9 10  1  0
 10 11  2  0
 11 12  1  0
M  END
