
     RDKit          3D

 16 17  0  0  0  0  0  0  0  0999 V2000
    3.9080    0.6730   -0.1660 N   0  0  0  0  0  0  0  0  0  0  0  0
    3.3880   -0.6710   -0.3020 C   0  0  0  0  0  0  0  0  0  0  0  0
    1.9170   -0.7210   -0.1570 C   0  0  0  0  0  0  0  0  0  0  0  0
    1.3030   -1.9500   -0.2510 C   0  0  0  0  0  0  0  0  0  0  0  0
   -0.0880   -2.0360   -0.1200 C   0  0  0  0  0  0  0  0  0  0  0  0
   -0.8500   -0.9240    0.1000 C   0  0  0  0  0  0  0  0  0  0  0  0
   -0.2140    0.3080    0.1920 C   0  0  0  0  0  0  0  0  0  0  0  0
    1.1570    0.4040    0.0640 C   0  0  0  0  0  0  0  0  0  0  0  0
   -0.7060    1.6540    0.4140 C   0  0  0  0  0  0  0  0  0  0  0  0
   -1.9030    2.2240    0.4250 C   0  0  0  0  0  0  0  0  0  0  0  0
   -1.8140    3.5320    0.6890 F   0  0  0  0  0  0  0  0  0  0  0  0
   -3.2620    1.7510    0.2180 C   0  0  0  0  0  0  0  0  0  0  0  0
   -3.8790    0.5860    0.1190 C   0  0  0  0  0  0  0  0  0  0  0  0
   -3.3900   -0.7760    0.1870 C   0  0  0  0  0  0  0  0  0  0  0  0
   -4.7230   -1.9120    0.3090 Cl  0  0  0  0  0  0  0  0  0  0  0  0
   -2.2300   -1.3930    0.1820 C   0  0  0  0  0  0  0  0  0  0  0  0
  1  2  1  0
  2  3  1  0
  3  4  2  0
  3  8  1  0
  4  5  1  0
  5  6  2  0
  6  7  1  0
  6 16  1  0
  7  8  2  0
  7  9  1  0
  9 10  2  0
 10 11  1  0
 10 12  1  0
 12 13  2  0
 13 14  1  0
 14 15  1  0
 14 16  2  0
M  CHG  1   1   1
M  END
