
     RDKit          3D

 16 17  0  0  0  0  0  0  0  0999 V2000
    1.6050    2.4020    0.2880 N   0  0  0  0  0  0  0  0  0  0  0  0
    0.5960    1.4180    0.1150 C   0  0  0  0  0  0  0  0  0  0  0  0
    0.8650    0.0090   -0.0400 C   0  0  0  0  0  0  0  0  0  0  0  0
   -0.3070   -0.7830   -0.1330 C   0  0  0  0  0  0  0  0  0  0  0  0
   -1.6760   -0.2890   -0.0910 C   0  0  0  0  0  0  0  0  0  0  0  0
   -2.2430    0.8670   -0.2740 C   0  0  0  0  0  0  0  0  0  0  0  0
   -3.7170    0.7560   -0.0810 C   0  0  0  0  0  0  0  0  0  0  0  0
   -3.9270   -0.6410    0.2640 C   0  0  0  0  0  0  0  0  0  0  0  0
   -2.7650   -1.2450    0.2570 C   0  0  0  0  0  0  0  0  0  0  0  0
   -0.0990   -2.1380   -0.3330 C   0  0  0  0  0  0  0  0  0  0  0  0
    1.1360   -2.7210   -0.4390 C   0  0  0  0  0  0  0  0  0  0  0  0
    2.2320   -1.9180   -0.3410 C   0  0  0  0  0  0  0  0  0  0  0  0
    3.4860   -2.4340   -0.4340 F   0  0  0  0  0  0  0  0  0  0  0  0
    2.1060   -0.5250   -0.1350 C   0  0  0  0  0  0  0  0  0  0  0  0
    3.3950    0.1870    0.0440 C   0  0  0  0  0  0  0  0  0  0  0  0
    3.7160    0.1930    1.8190 Cl  0  0  0  0  0  0  0  0  0  0  0  0
  1  2  1  0
  2  3  1  0
  3  4  2  0
  3 14  1  0
  4  5  1  0
  4 10  1  0
  5  6  2  0
  5  9  1  0
  6  7  1  0
  7  8  1  0
  8  9  2  0
 10 11  2  0
 11 12  1  0
 12 13  1  0
 12 14  2  0
 14 15  1  0
 15 16  1  0
M  CHG  1   1   1
M  END
