
     RDKit          3D

 16 17  0  0  0  0  0  0  0  0999 V2000
    3.7150    1.8020   -0.0460 C   0  0  0  0  0  0  0  0  0  0  0  0
    2.8950    0.5960    0.2150 C   0  0  0  0  0  0  0  0  0  0  0  0
    1.5330    0.6240   -0.0600 C   0  0  0  0  0  0  0  0  0  0  0  0
    0.7520   -0.4630    0.1670 C   0  0  0  0  0  0  0  0  0  0  0  0
   -0.6950   -0.4930   -0.1050 C   0  0  0  0  0  0  0  0  0  0  0  0
   -1.2860   -1.6940   -0.4770 C   0  0  0  0  0  0  0  0  0  0  0  0
   -2.6220   -1.8250   -0.7510 C   0  0  0  0  0  0  0  0  0  0  0  0
   -3.2980   -3.3660   -1.2140 Cl  0  0  0  0  0  0  0  0  0  0  0  0
   -3.3930   -0.6870   -0.6430 C   0  0  0  0  0  0  0  0  0  0  0  0
   -2.8240    0.5300   -0.2720 C   0  0  0  0  0  0  0  0  0  0  0  0
   -3.7410    1.6860   -0.1870 C   0  0  0  0  0  0  0  0  0  0  0  0
   -4.2540    1.7650    1.0920 F   0  0  0  0  0  0  0  0  0  0  0  0
   -1.4910    0.6120   -0.0080 C   0  0  0  0  0  0  0  0  0  0  0  0
    1.3390   -1.6050    0.6800 C   0  0  0  0  0  0  0  0  0  0  0  0
    2.7110   -1.6400    0.9590 C   0  0  0  0  0  0  0  0  0  0  0  0
    3.4290   -0.5310    0.7120 N   0  0  0  0  0  0  0  0  0  0  0  0
  1  2  1  0
  2  3  2  0
  2 16  1  0
  3  4  1  0
  4  5  1  0
  4 14  2  0
  5  6  2  0
  5 13  1  0
  6  7  1  0
  7  8  1  0
  7  9  2  0
  9 10  1  0
 10 11  1  0
 10 13  2  0
 11 12  1  0
 14 15  1  0
 15 16  2  0
M  CHG  1  16   1
M  END
