
     RDKit          3D

 17 18  0  0  0  0  0  0  0  0999 V2000
   -4.6600    1.4290    0.0090 N   0  0  0  0  0  0  0  0  0  0  0  0
   -4.2240    0.0200    0.0160 C   0  0  0  0  0  0  0  0  0  0  0  0
   -5.0530   -1.0420   -0.0940 C   0  0  0  0  0  0  0  0  0  0  0  0
   -4.2580   -2.1190    0.0320 N   0  0  0  0  0  0  0  0  0  0  0  0
   -3.0450   -1.7070    0.1680 N   0  0  0  0  0  0  0  0  0  0  0  0
   -2.9060   -0.4300    0.1980 C   0  0  0  0  0  0  0  0  0  0  0  0
   -1.8160    0.4470    0.5270 C   0  0  0  0  0  0  0  0  0  0  0  0
   -0.7370    0.4440   -0.3610 N   0  0  0  0  0  0  0  0  0  0  0  0
    0.4480   -0.3060   -0.3190 C   0  0  0  0  0  0  0  0  0  0  0  0
    0.6580   -1.1830    0.4330 O   0  0  0  0  0  0  0  0  0  0  0  0
    1.4600    0.0740   -1.2590 N   0  0  0  0  0  0  0  0  0  0  0  0
    2.8000   -0.2770   -1.2170 C   0  0  1  0  0  0  0  0  0  0  0  0
    3.6010    1.0240   -1.2680 C   0  0  0  0  0  0  0  0  0  0  0  0
    4.6790    0.9300   -0.4570 O   0  0  0  0  0  0  0  0  0  0  0  0
    4.6190   -0.2300    0.2560 C   0  0  0  0  0  0  0  0  0  0  0  0
    3.1420   -0.5980    0.3010 C   0  0  1  0  0  0  0  0  0  0  0  0
    2.5670    0.2770    1.1650 O   0  0  0  0  0  0  0  0  0  0  0  0
  1  2  1  0
  2  3  2  0
  2  6  1  0
  3  4  1  0
  4  5  1  0
  5  6  2  0
  6  7  1  0
  7  8  1  0
  8  9  1  0
  9 10  2  0
  9 11  1  0
 12 11  1  1
 12 13  1  0
 12 16  1  0
 13 14  1  0
 14 15  1  0
 15 16  1  0
 16 17  1  1
M  END
