
     RDKit          3D

 14 14  0  0  0  0  0  0  0  0999 V2000
   -3.7960    0.2240    0.5670 O   0  0  0  0  0  0  0  0  0  0  0  0
   -2.6980    0.1030   -0.0740 C   0  0  0  0  0  0  0  0  0  0  0  0
   -2.1280    1.3010   -0.4800 O   0  0  0  0  0  0  0  0  0  0  0  0
   -2.1230   -1.2380   -0.3380 C   0  0  0  0  0  0  0  0  0  0  0  0
   -0.9150   -1.1370   -1.0150 O   0  0  0  0  0  0  0  0  0  0  0  0
    0.2370   -0.5310   -0.6210 C   0  0  0  0  0  0  0  0  0  0  0  0
    0.4280    0.1180    0.5850 C   0  0  0  0  0  0  0  0  0  0  0  0
    1.6100    0.7200    0.9520 C   0  0  0  0  0  0  0  0  0  0  0  0
    1.8460    1.5350    2.4700 Cl  0  0  0  0  0  0  0  0  0  0  0  0
    2.6510    0.6640    0.0580 C   0  0  0  0  0  0  0  0  0  0  0  0
    4.1930    1.4060    0.4440 Cl  0  0  0  0  0  0  0  0  0  0  0  0
    2.5400    0.0360   -1.1640 C   0  0  0  0  0  0  0  0  0  0  0  0
    1.3220   -0.5590   -1.4900 C   0  0  0  0  0  0  0  0  0  0  0  0
    1.1180   -1.3760   -3.0340 Cl  0  0  0  0  0  0  0  0  0  0  0  0
  1  2  2  0
  2  3  1  0
  2  4  1  0
  4  5  1  0
  5  6  1  0
  6  7  2  0
  6 13  1  0
  7  8  1  0
  8  9  1  0
  8 10  2  0
 10 11  1  0
 10 12  1  0
 12 13  2  0
 13 14  1  0
M  END
