
     RDKit          3D

 17 17  0  0  0  0  0  0  0  0999 V2000
    2.8110   -2.2800   -1.1380 C   0  0  0  0  0  0  0  0  0  0  0  0
    2.5800   -1.1180   -1.6100 N   0  0  0  0  0  0  0  0  0  0  0  0
    1.7000   -0.2200   -0.8450 C   0  0  0  0  0  0  0  0  0  0  0  0
    2.3300    0.5900   -0.0500 C   0  0  0  0  0  0  0  0  0  0  0  0
    3.8410    0.5920    0.0640 C   0  0  0  0  0  0  0  0  0  0  0  0
    4.2310    1.8830   -0.3110 O   0  0  0  0  0  0  0  0  0  0  0  0
    0.3240   -0.3130   -1.0320 N   0  0  0  0  0  0  0  0  0  0  0  0
   -0.7400   -0.1140   -0.0800 C   0  0  2  0  0  0  0  0  0  0  0  0
   -0.2990   -0.9030    1.1690 C   0  0  1  0  0  0  0  0  0  0  0  0
   -1.2230   -0.8100    2.1870 O   0  0  0  0  0  0  0  0  0  0  0  0
   -0.2760   -2.2530    0.7510 O   0  0  0  0  0  0  0  0  0  0  0  0
   -1.9000   -0.8240   -0.5890 N   0  0  0  0  0  0  0  0  0  0  0  0
   -3.0530   -0.3520   -0.7630 C   0  0  0  0  0  0  0  0  0  0  0  0
   -3.3820    1.0460   -0.4550 C   0  0  0  0  0  0  0  0  0  0  0  0
   -4.6590    1.6000   -0.6420 N   0  0  0  0  0  0  0  0  0  0  0  0
   -2.3680    1.7520    0.0180 C   0  0  0  0  0  0  0  0  0  0  0  0
   -1.0690    1.2290    0.2210 N   0  0  0  0  0  0  0  0  0  0  0  0
  1  2  2  0
  2  3  1  0
  3  4  2  3
  3  7  1  0
  4  5  1  0
  5  6  1  0
  8  7  1  6
  8  9  1  0
  8 12  1  0
  8 17  1  0
  9 10  1  1
  9 11  1  0
 12 13  2  0
 13 14  1  0
 14 15  1  0
 14 16  2  0
 16 17  1  0
M  END
