
     RDKit          3D

 17 17  0  0  0  0  0  0  0  0999 V2000
   -3.4250   -0.1190    0.4960 C   0  0  0  0  0  0  0  0  0  0  0  0
   -2.7640    0.9880    0.6860 C   0  0  0  0  0  0  0  0  0  0  0  0
   -3.5180    2.1790    0.6190 O   0  0  0  0  0  0  0  0  0  0  0  0
   -1.3560    1.0670    0.9500 C   0  0  0  0  0  0  0  0  0  0  0  0
   -0.7940    2.2600    1.1400 C   0  0  0  0  0  0  0  0  0  0  0  0
   -0.4870   -0.1080    0.9920 C   0  0  2  0  0  0  0  0  0  0  0  0
    0.8850    0.2420    1.3290 N   0  0  0  0  0  0  0  0  0  0  0  0
    1.6630    0.1650    0.1440 C   0  0  0  0  0  0  0  0  0  0  0  0
    2.9440    0.2810    0.0600 N   0  0  0  0  0  0  0  0  0  0  0  0
    3.6080    0.1850   -1.1830 C   0  0  0  0  0  0  0  0  0  0  0  0
    4.8540    0.8740   -1.3240 N   0  0  0  0  0  0  0  0  0  0  0  0
    3.1240   -0.4820   -2.1370 O   0  0  0  0  0  0  0  0  0  0  0  0
    0.7730   -0.0650   -0.9400 N   0  0  0  0  0  0  0  0  0  0  0  0
   -0.3920   -0.7500   -0.3560 C   0  0  1  0  0  0  0  0  0  0  0  0
   -0.1050   -2.1880   -0.2480 C   0  0  0  0  0  0  0  0  0  0  0  0
   -1.0510   -3.0890    0.2820 N   0  0  0  0  0  0  0  0  0  0  0  0
    1.0200   -2.6430   -0.6370 O   0  0  0  0  0  0  0  0  0  0  0  0
  1  2  2  0
  2  3  1  0
  2  4  1  0
  4  5  2  0
  6  4  1  6
  6  7  1  0
  6 14  1  0
  7  8  1  0
  8  9  2  3
  8 13  1  0
  9 10  1  0
 10 11  1  0
 10 12  2  0
 13 14  1  0
 14 15  1  1
 15 16  1  0
 15 17  2  0
M  END
