
     RDKit          3D

 17 18  0  0  0  0  0  0  0  0999 V2000
    4.1440    1.2070    1.0940 N   0  0  0  0  0  0  0  0  0  0  0  0
    2.7460    1.1100    1.2740 C   0  0  0  0  0  0  0  0  0  0  0  0
    2.2080    1.6480    2.2730 O   0  0  0  0  0  0  0  0  0  0  0  0
    1.8960    0.3860    0.3110 C   0  0  0  0  0  0  0  0  0  0  0  0
    2.5050   -0.1630   -0.7230 C   0  0  0  0  0  0  0  0  0  0  0  0
    3.9190   -0.0640   -0.9040 N   0  0  0  0  0  0  0  0  0  0  0  0
    1.7270   -0.8920   -1.7130 C   0  0  0  0  0  0  0  0  0  0  0  0
    0.4730   -0.9880   -1.5650 N   0  0  0  0  0  0  0  0  0  0  0  0
   -0.3030   -0.4470   -0.5040 C   0  0  2  0  0  0  0  0  0  0  0  0
    0.4200    0.3080    0.5410 C   0  0  0  0  0  0  0  0  0  0  0  0
   -1.0990   -1.5160    0.0830 N   0  0  0  0  0  0  0  0  0  0  0  0
   -2.4300   -1.0210    0.1420 C   0  0  0  0  0  0  0  0  0  0  0  0
   -3.5330   -1.6020    0.8130 N   0  0  0  0  0  0  0  0  0  0  0  0
   -2.5000    0.1060   -0.5450 C   0  0  0  0  0  0  0  0  0  0  0  0
   -3.7150    0.9580   -0.7420 C   0  0  0  0  0  0  0  0  0  0  0  0
   -4.8180    0.4270   -0.1030 O   0  0  0  0  0  0  0  0  0  0  0  0
   -1.2750    0.4220   -1.0830 O   0  0  0  0  0  0  0  0  0  0  0  0
  1  2  1  0
  2  3  2  0
  2  4  1  0
  4  5  2  0
  4 10  1  0
  5  6  1  0
  5  7  1  0
  7  8  2  0
  8  9  1  0
  9 10  1  1
  9 11  1  0
  9 17  1  0
 11 12  1  0
 12 13  1  0
 12 14  2  0
 14 15  1  0
 14 17  1  0
 15 16  1  0
M  END
