
     RDKit          3D

 17 18  0  0  0  0  0  0  0  0999 V2000
    1.6040    2.0660   -1.1750 N   0  0  0  0  0  0  0  0  0  0  0  0
    1.8920    0.9370   -0.3480 C   0  0  0  0  0  0  0  0  0  0  0  0
    1.0210   -0.0710    0.0030 C   0  0  0  0  0  0  0  0  0  0  0  0
   -0.3780   -0.1700   -0.4140 C   0  0  0  0  0  0  0  0  0  0  0  0
   -1.1300   -1.1320   -0.0530 N   0  0  0  0  0  0  0  0  0  0  0  0
   -2.5070   -1.2150   -0.4720 C   0  0  2  0  0  0  0  0  0  0  0  0
   -2.9470   -2.5910   -0.5660 N   0  0  0  0  0  0  0  0  0  0  0  0
   -2.6220   -0.6160   -1.7340 O   0  0  0  0  0  0  0  0  0  0  0  0
   -3.4200   -0.5090    0.4910 C   0  0  0  0  0  0  0  0  0  0  0  0
   -3.0720    0.9660    0.6140 C   0  0  0  0  0  0  0  0  0  0  0  0
   -3.9300    1.5970    1.5110 O   0  0  0  0  0  0  0  0  0  0  0  0
    1.6710   -0.9320    0.7820 N   0  0  0  0  0  0  0  0  0  0  0  0
    2.9420   -0.5440    0.9680 C   0  0  0  0  0  0  0  0  0  0  0  0
    3.0990    0.6280    0.2660 C   0  0  0  0  0  0  0  0  0  0  0  0
    4.4410    1.0430    0.4600 N   0  0  0  0  0  0  0  0  0  0  0  0
    5.1900   -0.0670    1.0160 C   0  0  0  0  0  0  0  0  0  0  0  0
    4.1620   -0.8630    1.5930 O   0  0  0  0  0  0  0  0  0  0  0  0
  1  2  1  0
  2  3  2  0
  2 14  1  0
  3  4  1  0
  3 12  1  0
  4  5  2  3
  5  6  1  0
  6  7  1  6
  6  8  1  0
  6  9  1  0
  9 10  1  0
 10 11  1  0
 12 13  1  0
 13 14  2  0
 13 17  1  0
 14 15  1  0
 15 16  1  0
 16 17  1  0
M  END
