
     RDKit          3D

 17 18  0  0  0  0  0  0  0  0999 V2000
    5.3610    0.4940   -0.9140 C   0  0  0  0  0  0  0  0  0  0  0  0
    3.8520    0.5410   -1.0590 C   0  0  0  0  0  0  0  0  0  0  0  0
    3.3810    1.2210   -1.9800 O   0  0  0  0  0  0  0  0  0  0  0  0
    3.0140   -0.1610   -0.1810 N   0  0  0  0  0  0  0  0  0  0  0  0
    1.5750   -0.1930   -0.2170 C   0  0  0  0  0  0  0  0  0  0  0  0
    0.9620   -0.9290    0.7180 C   0  0  0  0  0  0  0  0  0  0  0  0
    1.7880   -1.6290    1.6850 N   0  0  0  0  0  0  0  0  0  0  0  0
   -0.3900   -1.0090    0.7490 O   0  0  0  0  0  0  0  0  0  0  0  0
   -1.2390   -0.3680   -0.1420 C   0  0  1  0  0  0  0  0  0  0  0  0
   -2.0190   -1.4240   -0.7890 N   0  0  0  0  0  0  0  0  0  0  0  0
   -2.2030    0.4970    0.5210 N   0  0  0  0  0  0  0  0  0  0  0  0
   -3.0740    1.1510   -0.4370 C   0  0  0  0  0  0  0  0  0  0  0  0
   -4.2740    1.4840    0.4590 C   0  0  0  0  0  0  0  0  0  0  0  0
   -4.2280    0.6020    1.5110 O   0  0  0  0  0  0  0  0  0  0  0  0
   -3.1630   -0.2620    1.3060 C   0  0  0  0  0  0  0  0  0  0  0  0
   -0.5250    0.3970   -1.1100 N   0  0  0  0  0  0  0  0  0  0  0  0
    0.7720    0.5000   -1.1750 C   0  0  0  0  0  0  0  0  0  0  0  0
  1  2  1  0
  2  3  2  0
  2  4  1  0
  4  5  1  0
  5  6  2  0
  5 17  1  0
  6  7  1  0
  6  8  1  0
  8  9  1  0
  9 10  1  6
  9 11  1  0
  9 16  1  0
 11 12  1  0
 11 15  1  0
 12 13  1  0
 13 14  1  0
 14 15  1  0
 16 17  2  0
M  END
