
     RDKit          3D

 27 29  0  0  0  0  0  0  0  0999 V2000
    4.1220    0.7040   -2.1830 C   0  0  0  0  0  0  0  0  0  0  0  0
    3.6440   -0.4800   -1.3400 C   0  0  0  0  0  0  0  0  0  0  0  0
    3.9680   -0.1770    0.0020 O   0  0  0  0  0  0  0  0  0  0  0  0
    3.6460   -1.0830    0.9920 C   0  0  0  0  0  0  0  0  0  0  0  0
    4.5760   -2.0500    1.3140 C   0  0  0  0  0  0  0  0  0  0  0  0
    6.1330   -2.1430    0.4970 Cl  0  0  0  0  0  0  0  0  0  0  0  0
    4.3040   -2.9820    2.2970 C   0  0  0  0  0  0  0  0  0  0  0  0
    3.0850   -2.9170    2.9440 C   0  0  0  0  0  0  0  0  0  0  0  0
    2.1720   -1.9420    2.6060 C   0  0  0  0  0  0  0  0  0  0  0  0
    0.9590   -1.9140    3.2810 O   0  0  0  0  0  0  0  0  0  0  0  0
    2.4260   -0.9930    1.6160 C   0  0  0  0  0  0  0  0  0  0  0  0
    1.4690   -0.0580    1.3400 O   0  0  0  0  0  0  0  0  0  0  0  0
    1.3480    1.1890    1.9460 C   0  0  0  0  0  0  0  0  0  0  0  0
    0.2210    2.0090    1.4660 C   0  0  0  0  0  0  0  0  0  0  0  0
    0.0410    3.1290    1.9680 O   0  0  0  0  0  0  0  0  0  0  0  0
   -0.6490    1.5460    0.4550 N   0  0  0  0  0  0  0  0  0  0  0  0
   -0.5600    0.2810   -0.2290 C   0  0  0  0  0  0  0  0  0  0  0  0
   -1.6460    0.3490   -1.2700 C   0  0  1  0  0  0  0  0  0  0  0  0
   -1.1340    1.0260   -2.3950 O   0  0  0  0  0  0  0  0  0  0  0  0
   -2.1350   -1.0260   -1.6380 C   0  0  0  0  0  0  0  0  0  0  0  0
   -3.5060   -1.3360   -1.1500 C   0  0  0  0  0  0  0  0  0  0  0  0
   -3.7860   -0.8600    0.2450 C   0  0  0  0  0  0  0  0  0  0  0  0
   -3.4230    0.5710    0.4770 C   0  0  2  0  0  0  0  0  0  0  0  0
   -4.5340    1.3640    0.7750 O   0  0  0  0  0  0  0  0  0  0  0  0
   -2.6920    1.2090   -0.6530 C   0  0  2  0  0  0  0  0  0  0  0  0
   -3.5860    1.8780   -1.6630 C   0  0  0  0  0  0  0  0  0  0  0  0
   -1.8060    2.3130   -0.0430 C   0  0  0  0  0  0  0  0  0  0  0  0
  1  2  1  0
  2  3  1  0
  3  4  1  0
  4  5  2  0
  4 11  1  0
  5  6  1  0
  5  7  1  0
  7  8  2  0
  8  9  1  0
  9 10  1  0
  9 11  2  0
 11 12  1  0
 12 13  1  0
 13 14  1  0
 14 15  2  0
 14 16  1  0
 16 17  1  0
 16 27  1  0
 17 18  1  0
 18 19  1  6
 18 20  1  0
 18 25  1  0
 20 21  1  0
 21 22  1  0
 22 23  1  0
 23 24  1  6
 23 25  1  0
 25 26  1  6
 25 27  1  0
M  END
