
     RDKit          3D

 27 29  0  0  0  0  0  0  0  0999 V2000
    5.2990    2.9290   -1.3810 C   0  0  0  0  0  0  0  0  0  0  0  0
    4.9240    1.6440   -0.6910 C   0  0  0  0  0  0  0  0  0  0  0  0
    5.5280    0.4310   -0.9270 C   0  0  0  0  0  0  0  0  0  0  0  0
    4.8820   -0.4600   -0.0910 C   0  0  0  0  0  0  0  0  0  0  0  0
    3.9190    0.2360    0.6160 C   0  0  0  0  0  0  0  0  0  0  0  0
    2.9860   -0.3490    1.6370 C   0  0  0  0  0  0  0  0  0  0  0  0
    1.7550   -0.8120    1.0080 N   0  0  0  0  0  0  0  0  0  0  0  0
    1.5710   -2.1330    0.4980 C   0  0  0  0  0  0  0  0  0  0  0  0
    2.4060   -3.0170    0.2490 O   0  0  0  0  0  0  0  0  0  0  0  0
    0.0810   -2.2510    0.3100 C   0  0  2  0  0  0  0  0  0  0  0  0
   -0.4390   -2.6450    1.5110 O   0  0  0  0  0  0  0  0  0  0  0  0
   -0.2300   -3.2080   -0.6420 O   0  0  0  0  0  0  0  0  0  0  0  0
   -0.2610   -0.8580   -0.1110 C   0  0  1  0  0  0  0  0  0  0  0  0
    0.2470   -0.6280   -1.5160 C   0  0  0  0  0  0  0  0  0  0  0  0
   -1.7400   -0.6150   -0.0200 C   0  0  2  0  0  0  0  0  0  0  0  0
   -2.1640   -0.7960    1.4260 C   0  0  0  0  0  0  0  0  0  0  0  0
   -2.3620   -1.5340   -0.8650 O   0  0  0  0  0  0  0  0  0  0  0  0
   -2.1360    0.7550   -0.4380 C   0  0  0  0  0  0  0  0  0  0  0  0
   -3.6070    0.9820   -0.3780 C   0  0  0  0  0  0  0  0  0  0  0  0
   -4.5930    0.1760   -0.0480 C   0  0  0  0  0  0  0  0  0  0  0  0
   -5.8850    0.8870   -0.1500 C   0  0  0  0  0  0  0  0  0  0  0  0
   -5.4900    2.2400   -0.5940 C   0  0  0  0  0  0  0  0  0  0  0  0
   -4.1800    2.2950   -0.7260 C   0  0  0  0  0  0  0  0  0  0  0  0
   -3.3080    3.7400   -1.2400 Cl  0  0  0  0  0  0  0  0  0  0  0  0
    0.5630   -0.0610    0.7990 C   0  0  0  0  0  0  0  0  0  0  0  0
    0.3110    1.0480    1.3070 O   0  0  0  0  0  0  0  0  0  0  0  0
    3.9940    1.4700    0.2170 O   0  0  0  0  0  0  0  0  0  0  0  0
  1  2  1  0
  2  3  2  0
  2 27  1  0
  3  4  1  0
  4  5  2  0
  5  6  1  0
  5 27  1  0
  6  7  1  0
  7  8  1  0
  7 25  1  0
  8  9  2  0
  8 10  1  0
 10 11  1  1
 10 12  1  0
 10 13  1  0
 13 14  1  6
 13 15  1  0
 13 25  1  0
 15 16  1  1
 15 17  1  0
 15 18  1  0
 18 19  1  0
 19 20  2  0
 19 23  1  0
 20 21  1  0
 21 22  1  0
 22 23  2  0
 23 24  1  0
 25 26  2  0
M  END
