
     RDKit          3D

 25 24  0  0  0  0  0  0  0  0999 V2000
    3.4520    0.9140   -1.3130 O   0  0  0  0  0  0  0  0  0  0  0  0
    3.5280    0.4090   -0.1810 C   0  0  0  0  0  0  0  0  0  0  0  0
    4.6620    0.5860    0.5760 O   0  0  0  0  0  0  0  0  0  0  0  0
    2.3640   -0.3870    0.3300 C   0  0  1  0  0  0  0  0  0  0  0  0
    2.7760   -1.6920    0.6060 F   0  0  0  0  0  0  0  0  0  0  0  0
    1.8500    0.2260    1.4230 F   0  0  0  0  0  0  0  0  0  0  0  0
    1.3510   -0.4600   -0.7740 C   0  0  1  0  0  0  0  0  0  0  0  0
    0.9870    0.8370   -1.0740 F   0  0  0  0  0  0  0  0  0  0  0  0
    2.0460   -0.9450   -1.8950 F   0  0  0  0  0  0  0  0  0  0  0  0
    0.2040   -1.3690   -0.5620 C   0  0  1  0  0  0  0  0  0  0  0  0
   -0.6160   -1.3550   -1.7000 F   0  0  0  0  0  0  0  0  0  0  0  0
    0.6890   -2.6850   -0.4580 F   0  0  0  0  0  0  0  0  0  0  0  0
   -0.6710   -1.1460    0.6010 C   0  0  1  0  0  0  0  0  0  0  0  0
   -1.6500   -2.1870    0.5230 F   0  0  0  0  0  0  0  0  0  0  0  0
    0.0100   -1.4750    1.7780 F   0  0  0  0  0  0  0  0  0  0  0  0
   -1.4640    0.0870    0.7310 C   0  0  2  0  0  0  0  0  0  0  0  0
   -0.7450    1.2750    0.7440 F   0  0  0  0  0  0  0  0  0  0  0  0
   -2.1010   -0.0310    2.0070 F   0  0  0  0  0  0  0  0  0  0  0  0
   -2.5920    0.3020   -0.2270 C   0  0  1  0  0  0  0  0  0  0  0  0
   -2.2350    0.3740   -1.5350 F   0  0  0  0  0  0  0  0  0  0  0  0
   -3.5990   -0.6380   -0.0670 F   0  0  0  0  0  0  0  0  0  0  0  0
   -3.1840    1.6760    0.1390 C   0  0  1  0  0  0  0  0  0  0  0  0
   -3.6380    1.6840    1.4400 F   0  0  0  0  0  0  0  0  0  0  0  0
   -2.3040    2.6820   -0.1330 F   0  0  0  0  0  0  0  0  0  0  0  0
   -4.3030    1.8540   -0.6680 F   0  0  0  0  0  0  0  0  0  0  0  0
  1  2  2  0
  2  3  1  0
  2  4  1  0
  4  5  1  1
  4  6  1  0
  4  7  1  0
  7  8  1  6
  7  9  1  0
  7 10  1  0
 10 11  1  6
 10 12  1  0
 10 13  1  0
 13 14  1  6
 13 15  1  0
 13 16  1  0
 16 17  1  1
 16 18  1  0
 16 19  1  0
 19 20  1  6
 19 21  1  0
 19 22  1  0
 22 23  1  1
 22 24  1  0
 22 25  1  0
M  END
