
     RDKit          3D

 27 28  0  0  0  0  0  0  0  0999 V2000
   -8.1340    0.7480    1.2610 C   0  0  0  0  0  0  0  0  0  0  0  0
   -6.8090    0.2060    0.8520 C   0  0  0  0  0  0  0  0  0  0  0  0
   -6.6440   -1.0690    0.5270 C   0  0  0  0  0  0  0  0  0  0  0  0
   -7.8650   -2.3330    0.5050 Cl  0  0  0  0  0  0  0  0  0  0  0  0
   -5.2280   -1.1780    0.1970 C   0  0  0  0  0  0  0  0  0  0  0  0
   -4.6770   -2.2400   -0.1620 O   0  0  0  0  0  0  0  0  0  0  0  0
   -4.5830    0.1050    0.3490 C   0  0  0  0  0  0  0  0  0  0  0  0
   -3.1670    0.5020    0.1330 C   0  0  0  0  0  0  0  0  0  0  0  0
   -2.8730    1.6920    0.3400 O   0  0  0  0  0  0  0  0  0  0  0  0
   -2.1970   -0.4050   -0.2820 N   0  0  0  0  0  0  0  0  0  0  0  0
   -0.8000   -0.2090   -0.5250 C   0  0  0  0  0  0  0  0  0  0  0  0
   -0.4330   -0.3310   -1.8230 C   0  0  0  0  0  0  0  0  0  0  0  0
    0.9220   -0.1990   -2.2970 C   0  0  0  0  0  0  0  0  0  0  0  0
    1.8830    0.0280   -1.4170 C   0  0  0  0  0  0  0  0  0  0  0  0
    1.5940    0.1240    0.0030 C   0  0  0  0  0  0  0  0  0  0  0  0
    2.5150    0.1500    0.9350 C   0  0  0  0  0  0  0  0  0  0  0  0
    2.1040    0.2450    2.2760 O   0  0  0  0  0  0  0  0  0  0  0  0
    3.9270    0.0880    0.7080 C   0  0  0  0  0  0  0  0  0  0  0  0
    4.7520    0.1250    1.7170 O   0  0  0  0  0  0  0  0  0  0  0  0
    4.5920   -0.0130   -0.4970 O   0  0  0  0  0  0  0  0  0  0  0  0
    5.9770   -0.0690   -0.6370 C   0  0  1  0  0  0  0  0  0  0  0  0
    6.4650   -1.3570   -1.2590 C   0  0  0  0  0  0  0  0  0  0  0  0
    6.5470    1.1000   -1.4210 C   0  0  0  0  0  0  0  0  0  0  0  0
    0.1670    0.1750    0.5000 C   0  0  1  0  0  0  0  0  0  0  0  0
   -0.0460    1.6140    0.9720 C   0  0  0  0  0  0  0  0  0  0  0  0
    0.0390   -0.6430    1.6360 O   0  0  0  0  0  0  0  0  0  0  0  0
   -5.5490    0.9250    0.7430 C   0  0  0  0  0  0  0  0  0  0  0  0
  1  2  1  0
  2  3  2  0
  2 27  1  0
  3  4  1  0
  3  5  1  0
  5  6  2  0
  5  7  1  0
  7  8  1  0
  7 27  2  0
  8  9  2  0
  8 10  1  0
 10 11  1  0
 11 12  2  0
 11 24  1  0
 12 13  1  0
 13 14  2  0
 14 15  1  0
 15 16  2  3
 15 24  1  0
 16 17  1  0
 16 18  1  0
 18 19  2  0
 18 20  1  0
 20 21  1  0
 21 22  1  6
 21 23  1  0
 24 25  1  1
 24 26  1  0
M  END
