
     RDKit          3D

 14 15  0  0  0  0  0  0  0  0999 V2000
    4.7610   -0.5880   -0.3190 C   0  0  0  0  0  0  0  0  0  0  0  0
    3.4990   -1.1620   -0.3990 O   0  0  0  0  0  0  0  0  0  0  0  0
    2.3490   -0.5490    0.0620 C   0  0  0  0  0  0  0  0  0  0  0  0
    2.2910    0.7090    0.4650 C   0  0  0  0  0  0  0  0  0  0  0  0
    1.1130    1.3250    0.9310 N   0  0  0  0  0  0  0  0  0  0  0  0
   -0.1070    0.6210    1.0270 C   0  0  2  0  0  0  0  0  0  0  0  0
   -0.0130   -0.7560    0.5660 C   0  0  0  0  0  0  0  0  0  0  0  0
    1.0960   -1.2960    0.1290 C   0  0  0  0  0  0  0  0  0  0  0  0
   -1.2320   -1.6010    0.5660 C   0  0  0  0  0  0  0  0  0  0  0  0
   -2.3750   -0.9660    0.4310 C   0  0  0  0  0  0  0  0  0  0  0  0
   -3.6120   -1.7850    0.4280 C   0  0  0  0  0  0  0  0  0  0  0  0
   -2.5000    0.4640    0.2810 C   0  0  0  0  0  0  0  0  0  0  0  0
   -1.3220    1.3310    0.4670 C   0  0  2  0  0  0  0  0  0  0  0  0
   -0.9960    2.0830   -0.7320 N   0  0  0  0  0  0  0  0  0  0  0  0
  1  2  1  0
  2  3  1  0
  3  4  2  0
  3  8  1  0
  4  5  1  0
  6  5  1  6
  6  7  1  0
  6 13  1  0
  7  8  2  0
  7  9  1  0
  9 10  2  0
 10 11  1  0
 10 12  1  0
 12 13  1  0
 13 14  1  6
M  CHG  1  14   1
M  END
