
     RDKit          3D

 17 18  0  0  0  0  0  0  0  0999 V2000
   -2.4530    1.1100    1.8890 C   0  0  0  0  0  0  0  0  0  0  0  0
   -1.7720    0.6250    0.9000 C   0  0  0  0  0  0  0  0  0  0  0  0
   -0.2980    0.7820    0.9750 C   0  0  0  0  0  0  0  0  0  0  0  0
    0.1690    1.6810    1.6790 O   0  0  0  0  0  0  0  0  0  0  0  0
    0.6450   -0.0800    0.2520 C   0  0  0  0  0  0  0  0  0  0  0  0
    1.9600    0.1720    0.0050 C   0  0  0  0  0  0  0  0  0  0  0  0
    2.6540    1.3400    0.4210 N   0  0  0  0  0  0  0  0  0  0  0  0
    4.0730    1.4480    0.0750 C   0  0  0  0  0  0  0  0  0  0  0  0
    2.4860   -0.8720   -0.7020 N   0  0  0  0  0  0  0  0  0  0  0  0
    1.4900   -1.7570   -0.8850 C   0  0  0  0  0  0  0  0  0  0  0  0
    1.5430   -2.8600   -1.4880 O   0  0  0  0  0  0  0  0  0  0  0  0
    0.3530   -1.2960   -0.3100 N   0  0  0  0  0  0  0  0  0  0  0  0
   -0.9270   -1.9630   -0.2700 C   0  0  0  0  0  0  0  0  0  0  0  0
   -2.0830   -1.2540   -0.8620 C   0  0  0  0  0  0  0  0  0  0  0  0
   -2.5170   -0.0190   -0.1680 C   0  0  0  0  0  0  0  0  0  0  0  0
   -3.6000    0.5470   -0.5770 C   0  0  0  0  0  0  0  0  0  0  0  0
   -4.3720    2.1550    0.0370 Br  0  0  0  0  0  0  0  0  0  0  0  0
  1  2  2  0
  2  3  1  0
  2 15  1  0
  3  4  2  0
  3  5  1  0
  5  6  2  0
  5 12  1  0
  6  7  1  0
  6  9  1  0
  7  8  1  0
  9 10  1  0
 10 11  2  0
 10 12  1  0
 12 13  1  0
 13 14  1  0
 14 15  1  0
 15 16  2  3
 16 17  1  0
M  END
