
     RDKit          3D

 17 19  0  0  0  0  0  0  0  0999 V2000
   -0.6150   -2.4030    1.2150 C   0  0  0  0  0  0  0  0  0  0  0  0
   -0.3260   -1.1370    0.5770 N   0  0  0  0  0  0  0  0  0  0  0  0
    0.9190   -0.7160    0.2660 C   0  0  0  0  0  0  0  0  0  0  0  0
    2.1950   -1.2350    0.4060 C   0  0  0  0  0  0  0  0  0  0  0  0
    3.3140   -0.5500   -0.0220 C   0  0  0  0  0  0  0  0  0  0  0  0
    3.2060    0.6790   -0.6070 C   0  0  0  0  0  0  0  0  0  0  0  0
    4.7650    1.6150   -1.1950 Br  0  0  0  0  0  0  0  0  0  0  0  0
    1.9330    1.2130   -0.7550 C   0  0  0  0  0  0  0  0  0  0  0  0
    0.7960    0.5440   -0.3330 C   0  0  0  0  0  0  0  0  0  0  0  0
   -0.5410    0.8710   -0.3750 C   0  0  0  0  0  0  0  0  0  0  0  0
   -1.2150    1.9740   -0.8510 C   0  0  0  0  0  0  0  0  0  0  0  0
   -0.6430    2.9580   -1.3760 O   0  0  0  0  0  0  0  0  0  0  0  0
   -2.5530    1.9940   -0.7440 N   0  0  0  0  0  0  0  0  0  0  0  0
   -3.2390    0.9930   -0.2010 N   0  0  0  0  0  0  0  0  0  0  0  0
   -2.5730   -0.0950    0.2680 C   0  0  0  0  0  0  0  0  0  0  0  0
   -3.2690   -1.0260    0.7790 O   0  0  0  0  0  0  0  0  0  0  0  0
   -1.2030   -0.1960    0.1980 C   0  0  0  0  0  0  0  0  0  0  0  0
  1  2  1  0
  2  3  1  0
  2 17  1  0
  3  4  2  0
  3  9  1  0
  4  5  1  0
  5  6  2  0
  6  7  1  0
  6  8  1  0
  8  9  2  0
  9 10  1  0
 10 11  1  0
 10 17  2  0
 11 12  2  0
 11 13  1  0
 13 14  1  0
 14 15  1  0
 15 16  2  0
 15 17  1  0
M  END
