
     RDKit          3D

 30 32  0  0  0  0  0  0  0  0999 V2000
   -6.0970   -1.6200   -0.5090 C   0  0  0  0  0  0  0  0  0  0  0  0
   -6.6300   -0.2370   -0.2570 C   0  0  0  0  0  0  0  0  0  0  0  0
   -5.8930    0.5790    1.1660 S   0  0  0  0  0  0  0  0  0  0  0  0
   -4.1560    0.8780    0.8210 C   0  0  0  0  0  0  0  0  0  0  0  0
   -3.7270    2.0250    0.2060 C   0  0  0  0  0  0  0  0  0  0  0  0
   -5.0170    3.3320   -0.2900 Br  0  0  0  0  0  0  0  0  0  0  0  0
   -2.3630    2.2160   -0.0440 C   0  0  0  0  0  0  0  0  0  0  0  0
   -1.4110    1.2840    0.3070 C   0  0  0  0  0  0  0  0  0  0  0  0
   -0.0300    1.4730    0.0640 N   0  0  0  0  0  0  0  0  0  0  0  0
    0.5680    2.5670   -0.5770 C   0  0  0  0  0  0  0  0  0  0  0  0
   -0.1200    3.5060   -1.0040 O   0  0  0  0  0  0  0  0  0  0  0  0
    2.0430    2.6800   -0.7890 C   0  0  1  0  0  0  0  0  0  0  0  0
    2.4780    4.0290   -0.3170 C   0  0  0  0  0  0  0  0  0  0  0  0
    2.7750    1.6080   -0.2870 O   0  0  0  0  0  0  0  0  0  0  0  0
    3.5080    0.7210   -1.0330 C   0  0  0  0  0  0  0  0  0  0  0  0
    3.5250    0.8860   -2.2770 O   0  0  0  0  0  0  0  0  0  0  0  0
    4.2620   -0.3900   -0.4720 C   0  0  0  0  0  0  0  0  0  0  0  0
    5.0060   -1.2880   -1.2050 C   0  0  0  0  0  0  0  0  0  0  0  0
    5.5930   -2.2110   -0.3650 C   0  0  0  0  0  0  0  0  0  0  0  0
    6.4580   -3.3270   -0.7150 C   0  0  0  0  0  0  0  0  0  0  0  0
    6.9070   -4.0730    0.1790 O   0  0  0  0  0  0  0  0  0  0  0  0
    6.7840   -3.5660   -2.0300 O   0  0  0  0  0  0  0  0  0  0  0  0
    5.1750   -1.8380    0.9080 C   0  0  0  0  0  0  0  0  0  0  0  0
    4.3860   -0.7540    0.8190 N   0  0  0  0  0  0  0  0  0  0  0  0
   -1.8880    0.1240    0.9350 C   0  0  0  0  0  0  0  0  0  0  0  0
   -0.9920   -0.8500    1.3150 C   0  0  0  0  0  0  0  0  0  0  0  0
   -1.4370   -2.0180    1.9450 C   0  0  0  0  0  0  0  0  0  0  0  0
   -2.7650   -2.1950    2.1840 C   0  0  0  0  0  0  0  0  0  0  0  0
   -3.6430   -1.2120    1.7970 C   0  0  0  0  0  0  0  0  0  0  0  0
   -3.2420   -0.0660    1.1830 C   0  0  0  0  0  0  0  0  0  0  0  0
  1  2  1  0
  2  3  1  0
  3  4  1  0
  4  5  2  0
  4 30  1  0
  5  6  1  0
  5  7  1  0
  7  8  2  0
  8  9  1  0
  8 25  1  0
  9 10  1  0
 10 11  2  0
 10 12  1  0
 12 13  1  1
 12 14  1  0
 14 15  1  0
 15 16  2  0
 15 17  1  0
 17 18  2  0
 17 24  1  0
 18 19  1  0
 19 20  1  0
 19 23  2  0
 20 21  2  0
 20 22  1  0
 23 24  1  0
 25 26  2  0
 25 30  1  0
 26 27  1  0
 27 28  2  0
 28 29  1  0
 29 30  2  0
M  END
