
     RDKit          3D

 31 34  0  0  0  0  0  0  0  0999 V2000
   -6.7480    2.4360   -0.2470 C   0  0  0  0  0  0  0  0  0  0  0  0
   -5.5870    1.4950   -0.3800 C   0  0  0  0  0  0  0  0  0  0  0  0
   -4.7940    1.1730    0.6790 C   0  0  0  0  0  0  0  0  0  0  0  0
   -3.6890    0.2900    0.5780 C   0  0  0  0  0  0  0  0  0  0  0  0
   -2.9000    0.0200    1.7480 C   0  0  0  0  0  0  0  0  0  0  0  0
   -3.2500    0.7090    2.7960 O   0  0  0  0  0  0  0  0  0  0  0  0
   -1.8510   -0.8370    1.9330 N   0  0  0  0  0  0  0  0  0  0  0  0
   -1.2810   -1.7150    0.9570 C   0  0  0  0  0  0  0  0  0  0  0  0
   -0.2580   -2.5840    1.7390 C   0  0  0  0  0  0  0  0  0  0  0  0
    0.7100   -1.6850    2.1890 O   0  0  0  0  0  0  0  0  0  0  0  0
    0.2620   -0.9180    3.2260 C   0  0  1  0  0  0  0  0  0  0  0  0
    0.8550    0.4650    3.1830 C   0  0  0  0  0  0  0  0  0  0  0  0
    2.2870    0.4190    3.2410 N   0  0  0  0  0  0  0  0  0  0  0  0
    3.1140    0.1220    2.1280 C   0  0  0  0  0  0  0  0  0  0  0  0
    2.6320    0.0760    0.8260 C   0  0  0  0  0  0  0  0  0  0  0  0
    3.4210   -0.1770   -0.2710 C   0  0  0  0  0  0  0  0  0  0  0  0
    4.7660   -0.3950   -0.0570 C   0  0  0  0  0  0  0  0  0  0  0  0
    5.2880   -0.3570    1.2230 C   0  0  0  0  0  0  0  0  0  0  0  0
    4.4710   -0.1020    2.2980 C   0  0  0  0  0  0  0  0  0  0  0  0
    5.0990   -0.0410    3.9430 Cl  0  0  0  0  0  0  0  0  0  0  0  0
    5.6140   -0.6800   -1.2400 C   0  0  0  0  0  0  0  0  0  0  0  0
    5.2410    0.0370   -2.4820 C   0  0  0  0  0  0  0  0  0  0  0  0
    3.9240    0.7230   -2.4130 C   0  0  1  0  0  0  0  0  0  0  0  0
    3.3780    1.1110   -3.7610 C   0  0  0  0  0  0  0  0  0  0  0  0
    2.9510   -0.2180   -1.6750 C   0  0  0  0  0  0  0  0  0  0  0  0
   -1.2460   -0.8530    3.2970 C   0  0  0  0  0  0  0  0  0  0  0  0
   -3.4960   -0.2080   -0.6840 C   0  0  0  0  0  0  0  0  0  0  0  0
   -4.2690    0.0830   -1.8010 C   0  0  0  0  0  0  0  0  0  0  0  0
   -3.9520   -0.5260   -3.1240 C   0  0  0  0  0  0  0  0  0  0  0  0
   -5.3320    0.9550   -1.6230 C   0  0  0  0  0  0  0  0  0  0  0  0
   -6.1480    1.2920   -2.6870 O   0  0  0  0  0  0  0  0  0  0  0  0
  1  2  1  0
  2  3  2  0
  2 30  1  0
  3  4  1  0
  4  5  1  0
  4 27  2  0
  5  6  2  0
  5  7  1  0
  7  8  1  0
  7 26  1  0
  8  9  1  0
  9 10  1  0
 10 11  1  0
 11 12  1  6
 11 26  1  0
 12 13  1  0
 13 14  1  0
 14 15  2  0
 14 19  1  0
 15 16  1  0
 16 17  2  0
 16 25  1  0
 17 18  1  0
 17 21  1  0
 18 19  2  0
 19 20  1  0
 21 22  1  0
 22 23  1  0
 23 24  1  6
 23 25  1  0
 27 28  1  0
 28 29  1  0
 28 30  2  0
 30 31  1  0
M  END
