
     RDKit          3D

 31 34  0  0  0  0  0  0  0  0999 V2000
   -5.8640    2.7330   -1.1510 C   0  0  0  0  0  0  0  0  0  0  0  0
   -4.6560    2.1090   -1.7670 C   0  0  0  0  0  0  0  0  0  0  0  0
   -4.5420    0.6370   -1.5020 C   0  0  0  0  0  0  0  0  0  0  0  0
   -4.4590    0.3200   -0.0280 C   0  0  2  0  0  0  0  0  0  0  0  0
   -3.2740    0.9650    0.6070 C   0  0  0  0  0  0  0  0  0  0  0  0
   -2.0820    0.3930    0.6460 C   0  0  0  0  0  0  0  0  0  0  0  0
   -1.1730    1.2710    1.3210 N   0  0  0  0  0  0  0  0  0  0  0  0
    0.2570    1.1630    1.3180 C   0  0  0  0  0  0  0  0  0  0  0  0
    1.0070    0.1130    1.1410 C   0  0  0  0  0  0  0  0  0  0  0  0
    2.4560    0.2190    1.1750 C   0  0  0  0  0  0  0  0  0  0  0  0
    3.1040   -0.8610    0.9910 O   0  0  0  0  0  0  0  0  0  0  0  0
    3.1630    1.4050    1.3910 N   0  0  0  0  0  0  0  0  0  0  0  0
    4.5700    1.5930    1.4100 C   0  0  0  0  0  0  0  0  0  0  0  0
    5.2560    1.4270    0.1140 C   0  0  2  0  0  0  0  0  0  0  0  0
    5.2100    0.1350   -0.6040 C   0  0  0  0  0  0  0  0  0  0  0  0
    6.2960    0.2090   -1.7140 C   0  0  0  0  0  0  0  0  0  0  0  0
    7.6080   -0.0740   -1.0110 C   0  0  0  0  0  0  0  0  0  0  0  0
    7.6380    0.6480    0.3270 C   0  0  0  0  0  0  0  0  0  0  0  0
    6.7300    1.8610    0.2440 C   0  0  0  0  0  0  0  0  0  0  0  0
    0.5150   -1.2430    0.9000 C   0  0  0  0  0  0  0  0  0  0  0  0
    1.3320   -2.1810    0.9440 O   0  0  0  0  0  0  0  0  0  0  0  0
   -0.7780   -1.6210    0.6220 O   0  0  0  0  0  0  0  0  0  0  0  0
   -1.8730   -0.9370    0.0430 C   0  0  1  0  0  0  0  0  0  0  0  0
   -3.0840   -1.7540    0.2570 C   0  0  0  0  0  0  0  0  0  0  0  0
   -2.9630   -3.1130    0.4880 C   0  0  0  0  0  0  0  0  0  0  0  0
   -4.0670   -3.9150    0.6870 C   0  0  0  0  0  0  0  0  0  0  0  0
   -3.9180   -5.6380    0.9810 Cl  0  0  0  0  0  0  0  0  0  0  0  0
   -5.3090   -3.3030    0.6450 C   0  0  0  0  0  0  0  0  0  0  0  0
   -6.5030   -4.1700    0.8590 C   0  0  0  0  0  0  0  0  0  0  0  0
   -5.4260   -1.9480    0.4130 C   0  0  0  0  0  0  0  0  0  0  0  0
   -4.3120   -1.1400    0.2140 C   0  0  0  0  0  0  0  0  0  0  0  0
  1  2  1  0
  2  3  1  0
  4  3  1  6
  4  5  1  0
  4 31  1  0
  5  6  2  0
  6  7  1  0
  6 23  1  0
  7  8  1  0
  8  9  2  0
  9 10  1  0
  9 20  1  0
 10 11  2  0
 10 12  1  0
 12 13  1  0
 14 13  1  1
 14 15  1  0
 14 19  1  0
 15 16  1  0
 16 17  1  0
 17 18  1  0
 18 19  1  0
 20 21  2  0
 20 22  1  0
 23 22  1  1
 23 24  1  0
 24 25  2  0
 24 31  1  0
 25 26  1  0
 26 27  1  0
 26 28  2  0
 28 29  1  0
 28 30  1  0
 30 31  2  0
M  END
