
     RDKit          3D

 14 14  0  0  0  0  0  0  0  0999 V2000
   -1.1710   -1.7330    0.3880 C   0  0  0  0  0  0  0  0  0  0  0  0
   -1.4710   -0.8140   -0.7620 C   0  0  2  0  0  0  0  0  0  0  0  0
   -0.3670   -0.5360   -1.5650 O   0  0  0  0  0  0  0  0  0  0  0  0
    0.7530    0.0770   -1.0170 C   0  0  0  0  0  0  0  0  0  0  0  0
    0.8350    0.6180    0.1090 N   0  0  0  0  0  0  0  0  0  0  0  0
    2.0310    1.2030    0.5420 C   0  0  1  0  0  0  0  0  0  0  0  0
    2.1290    1.0860    1.9240 O   0  0  0  0  0  0  0  0  0  0  0  0
    3.2250    0.6590   -0.1770 C   0  0  1  0  0  0  0  0  0  0  0  0
    3.8290   -0.5490    0.4410 C   0  0  0  0  0  0  0  0  0  0  0  0
    2.3830    0.2590   -1.7700 S   0  0  0  0  0  0  0  0  0  0  0  0
   -2.1700    0.4110   -0.2330 C   0  0  1  0  0  0  0  0  0  0  0  0
   -2.6470    1.2280   -1.2510 O   0  0  0  0  0  0  0  0  0  0  0  0
   -3.2950   -0.0830    0.6580 C   0  0  0  0  0  0  0  0  0  0  0  0
   -3.9750    0.9710    1.2590 O   0  0  0  0  0  0  0  0  0  0  0  0
  2  1  1  1
  2  3  1  0
  2 11  1  0
  3  4  1  0
  4  5  2  0
  4 10  1  0
  5  6  1  0
  6  7  1  1
  6  8  1  0
  8  9  1  1
  8 10  1  0
 11 12  1  6
 11 13  1  0
 13 14  1  0
M  END
