
     RDKit          3D

 14 15  0  0  0  0  0  0  0  0999 V2000
    1.6290    1.5310    0.2630 N   0  0  0  0  0  0  0  0  0  0  0  0
    1.9210    0.1620   -0.1070 C   0  0  2  0  0  0  0  0  0  0  0  0
    0.9420   -0.3310   -1.0520 C   0  0  0  0  0  0  0  0  0  0  0  0
   -0.3130   -0.4090   -0.1600 C   0  0  2  0  0  0  0  0  0  0  0  0
   -1.0150    0.7690   -0.2080 O   0  0  0  0  0  0  0  0  0  0  0  0
   -2.3140    0.6910   -0.6240 C   0  0  0  0  0  0  0  0  0  0  0  0
   -3.1160   -0.1860    0.2970 C   0  0  0  0  0  0  0  0  0  0  0  0
   -4.4530   -0.2760   -0.1160 O   0  0  0  0  0  0  0  0  0  0  0  0
    0.2190   -0.5350    1.2790 C   0  0  0  0  0  0  0  0  0  0  0  0
    1.6400   -0.7750    1.0930 C   0  0  2  0  0  0  0  0  0  0  0  0
    2.7970    0.0410    2.2000 S   0  0  0  0  0  0  0  0  0  0  0  0
    3.9360    0.4770    0.9050 O   0  0  0  0  0  0  0  0  0  0  0  0
    3.3310   -0.0060   -0.2860 C   0  0  0  0  0  0  0  0  0  0  0  0
    3.9480   -0.4850   -1.2900 O   0  0  0  0  0  0  0  0  0  0  0  0
  2  1  1  1
  2  3  1  0
  2 10  1  0
  2 13  1  0
  3  4  1  0
  4  5  1  1
  4  9  1  0
  5  6  1  0
  6  7  1  0
  7  8  1  0
 10  9  1  1
 10 11  1  0
 11 12  1  0
 12 13  1  0
 13 14  2  0
M  END
