
     RDKit          3D

 10 10  0  0  0  0  0  0  0  0999 V2000
   -1.9340   -1.2780    1.5260 O   0  0  0  0  0  0  0  0  0  0  0  0
   -1.2340   -0.8760    0.5610 C   0  0  0  0  0  0  0  0  0  0  0  0
   -1.7390    0.2620   -0.1840 C   0  0  0  0  0  0  0  0  0  0  0  0
   -0.7530    1.7620   -0.0140 S   0  0  0  0  0  0  0  0  0  0  0  0
    0.9960    1.4090    0.0040 C   0  0  0  0  0  0  0  0  0  0  0  0
    1.7080    2.4150    0.2190 O   0  0  0  0  0  0  0  0  0  0  0  0
    1.7130    0.1970   -0.1820 N   0  0  0  0  0  0  0  0  0  0  0  0
    1.1520   -1.1080   -0.1370 C   0  0  0  0  0  0  0  0  0  0  0  0
    1.9540   -1.9740   -0.6310 O   0  0  0  0  0  0  0  0  0  0  0  0
   -0.0610   -1.5780    0.3320 O   0  0  0  0  0  0  0  0  0  0  0  0
  1  2  2  0
  2  3  1  0
  2 10  1  0
  3  4  1  0
  4  5  1  0
  5  6  2  0
  5  7  1  0
  7  8  1  0
  8  9  2  0
  8 10  1  0
M  END
