
     RDKit          3D

 13 14  0  0  0  0  0  0  0  0999 V2000
    3.2300   -1.7170   -0.1880 C   0  0  0  0  0  0  0  0  0  0  0  0
    2.6960   -0.5670    1.0930 S   0  0  0  0  0  0  0  0  0  0  0  0
    1.2120    0.3130    0.6360 C   0  0  2  0  0  0  0  0  0  0  0  0
    0.0120   -0.5910    0.5010 C   0  0  0  0  0  0  0  0  0  0  0  0
   -1.2110    0.0850    0.0040 C   0  0  1  0  0  0  0  0  0  0  0  0
   -1.8640   -0.7830   -1.0670 C   0  0  0  0  0  0  0  0  0  0  0  0
   -2.3200   -1.8420   -0.2810 O   0  0  0  0  0  0  0  0  0  0  0  0
   -2.7110   -1.2940    0.9270 C   0  0  0  0  0  0  0  0  0  0  0  0
   -2.1870   -0.0180    1.0100 O   0  0  0  0  0  0  0  0  0  0  0  0
   -1.0770    1.4710   -0.4870 C   0  0  0  0  0  0  0  0  0  0  0  0
    0.2940    2.0430   -0.5510 C   0  0  1  0  0  0  0  0  0  0  0  0
    0.5080    2.7880    0.6190 O   0  0  0  0  0  0  0  0  0  0  0  0
    1.2960    1.0140   -0.6220 N   0  0  0  0  0  0  0  0  0  0  0  0
  1  2  1  0
  3  2  1  6
  3  4  1  0
  3 13  1  0
  5  4  1  1
  5  6  1  0
  5  9  1  0
  5 10  1  0
  6  7  1  0
  7  8  1  0
  8  9  1  0
 10 11  1  0
 11 12  1  1
 11 13  1  0
M  END
