
     RDKit          3D

 14 15  0  0  0  0  0  0  0  0999 V2000
   -2.4880   -1.0040   -1.1030 N   0  0  0  0  0  0  0  0  0  0  0  0
   -1.7360   -0.0820   -0.2450 C   0  0  2  0  0  0  0  0  0  0  0  0
   -2.7410    0.7280    0.5480 C   0  0  0  0  0  0  0  0  0  0  0  0
   -2.6160    2.0650    0.1670 O   0  0  0  0  0  0  0  0  0  0  0  0
   -1.3440    2.2330   -0.3630 C   0  0  0  0  0  0  0  0  0  0  0  0
   -0.5930    3.2490   -0.3090 O   0  0  0  0  0  0  0  0  0  0  0  0
   -1.0170    0.9500   -1.0300 C   0  0  1  0  0  0  0  0  0  0  0  0
    0.7130    0.6800   -1.2990 S   0  0  0  0  0  0  0  0  0  0  0  0
    1.6890    0.2840    0.1230 C   0  0  2  0  0  0  0  0  0  0  0  0
    3.1340    0.1290   -0.3200 C   0  0  0  0  0  0  0  0  0  0  0  0
    3.9720   -0.1860    0.7490 O   0  0  0  0  0  0  0  0  0  0  0  0
    1.3090   -1.0080    0.8050 C   0  0  0  0  0  0  0  0  0  0  0  0
    0.0530   -1.5160    0.0850 C   0  0  0  0  0  0  0  0  0  0  0  0
   -0.9930   -0.8140    0.6210 O   0  0  0  0  0  0  0  0  0  0  0  0
  2  1  1  6
  2  3  1  0
  2  7  1  0
  2 14  1  0
  3  4  1  0
  4  5  1  0
  5  6  2  0
  5  7  1  0
  7  8  1  1
  8  9  1  0
  9 10  1  6
  9 12  1  0
 10 11  1  0
 12 13  1  0
 13 14  1  0
M  END
