
     RDKit          3D

 14 15  0  0  0  0  0  0  0  0999 V2000
    2.8000    1.3570    0.6940 O   0  0  0  0  0  0  0  0  0  0  0  0
    2.7530   -0.0130    1.0070 C   0  0  2  0  0  0  0  0  0  0  0  0
    4.0740   -0.4570    0.9880 O   0  0  0  0  0  0  0  0  0  0  0  0
    4.2590   -1.1750   -0.1650 C   0  0  0  0  0  0  0  0  0  0  0  0
    3.1490   -0.8930   -1.0590 N   0  0  0  0  0  0  0  0  0  0  0  0
    2.0720   -0.8050   -0.0880 C   0  0  2  0  0  0  0  0  0  0  0  0
    0.6220    0.0310   -0.7470 S   0  0  0  0  0  0  0  0  0  0  0  0
   -0.6240    0.0960    0.5910 C   0  0  0  0  0  0  0  0  0  0  0  0
   -1.8750    0.7970    0.1070 C   0  0  1  0  0  0  0  0  0  0  0  0
   -1.6390    2.0860   -0.2970 O   0  0  0  0  0  0  0  0  0  0  0  0
   -2.6040   -0.0310   -0.9320 C   0  0  0  0  0  0  0  0  0  0  0  0
   -3.7980   -0.5700   -0.2000 C   0  0  0  0  0  0  0  0  0  0  0  0
   -3.4060   -0.5180    1.1300 O   0  0  0  0  0  0  0  0  0  0  0  0
   -2.8830    0.7860    1.2350 C   0  0  0  0  0  0  0  0  0  0  0  0
  2  1  1  6
  2  3  1  0
  2  6  1  0
  3  4  1  0
  4  5  1  0
  5  6  1  0
  6  7  1  6
  7  8  1  0
  8  9  1  0
  9 10  1  6
  9 11  1  0
  9 14  1  0
 11 12  1  0
 12 13  1  0
 13 14  1  0
M  END
