
     RDKit          3D

 10 10  0  0  0  0  0  0  0  0999 V2000
   -2.7870    1.2990   -0.3230 O   0  0  0  0  0  0  0  0  0  0  0  0
   -1.6380    0.7980   -0.2480 C   0  0  0  0  0  0  0  0  0  0  0  0
   -1.6460   -0.6860   -0.2670 C   0  0  0  0  0  0  0  0  0  0  0  0
   -0.6220   -1.2530    0.5200 O   0  0  0  0  0  0  0  0  0  0  0  0
    0.7220   -0.9140    0.4910 C   0  0  0  0  0  0  0  0  0  0  0  0
    1.5140   -1.8030    0.9390 O   0  0  0  0  0  0  0  0  0  0  0  0
    1.3750    0.3220    0.0190 C   0  0  0  0  0  0  0  0  0  0  0  0
    3.1280    0.1880   -0.1630 S   0  0  0  0  0  0  0  0  0  0  0  0
    0.7860    1.4420   -0.2580 N   0  0  0  0  0  0  0  0  0  0  0  0
   -0.5830    1.6990   -0.1630 O   0  0  0  0  0  0  0  0  0  0  0  0
  1  2  2  0
  2  3  1  0
  2 10  1  0
  3  4  1  0
  4  5  1  0
  5  6  2  0
  5  7  1  0
  7  8  1  0
  7  9  2  0
  9 10  1  0
M  END
