
     RDKit          3D

 14 15  0  0  0  0  0  0  0  0999 V2000
    3.6320   -0.3820    0.8430 N   0  0  0  0  0  0  0  0  0  0  0  0
    2.6780    0.4530    0.2110 C   0  0  0  0  0  0  0  0  0  0  0  0
    2.7470    1.6830    0.4340 O   0  0  0  0  0  0  0  0  0  0  0  0
    1.6190   -0.0620   -0.6870 C   0  0  1  0  0  0  0  0  0  0  0  0
    0.8670   -1.2010   -0.0590 C   0  0  0  0  0  0  0  0  0  0  0  0
    0.0250   -0.8650    0.9390 O   0  0  0  0  0  0  0  0  0  0  0  0
   -1.2200   -0.4660    0.6630 C   0  0  2  0  0  0  0  0  0  0  0  0
   -1.9890   -1.2310   -0.3640 C   0  0  0  0  0  0  0  0  0  0  0  0
   -3.3850   -0.0750   -0.6820 S   0  0  0  0  0  0  0  0  0  0  0  0
   -2.6890    1.4040    0.1540 C   0  0  0  0  0  0  0  0  0  0  0  0
   -1.2360    0.9900    0.2730 C   0  0  2  0  0  0  0  0  0  0  0  0
   -0.4860    1.2790   -0.9510 C   0  0  0  0  0  0  0  0  0  0  0  0
   -1.1350    1.8330   -1.8650 O   0  0  0  0  0  0  0  0  0  0  0  0
    0.8500    0.9840   -1.1460 O   0  0  0  0  0  0  0  0  0  0  0  0
  1  2  1  0
  2  3  2  0
  4  2  1  1
  4  5  1  0
  4 14  1  0
  5  6  1  0
  6  7  1  0
  7  8  1  6
  7 11  1  0
  8  9  1  0
  9 10  1  0
 11 10  1  6
 11 12  1  0
 12 13  2  0
 12 14  1  0
M  END
