
     RDKit          3D

 16 18  0  0  0  0  0  0  0  0999 V2000
   -1.7090    1.6780   -1.3620 O   0  0  0  0  0  0  0  0  0  0  0  0
   -1.9490    0.6670   -0.4740 C   0  0  0  0  0  0  0  0  0  0  0  0
   -3.2430    0.4310   -0.1790 N   0  0  0  0  0  0  0  0  0  0  0  0
   -3.6910   -0.4980    0.6540 C   0  0  0  0  0  0  0  0  0  0  0  0
   -2.7820   -1.2570    1.2430 N   0  0  0  0  0  0  0  0  0  0  0  0
   -1.4760   -1.0550    0.9760 C   0  0  0  0  0  0  0  0  0  0  0  0
   -0.0580   -1.9280    1.6270 S   0  0  0  0  0  0  0  0  0  0  0  0
    1.1450   -0.9790    0.7230 C   0  0  0  0  0  0  0  0  0  0  0  0
    2.5290   -1.0960    0.7240 C   0  0  0  0  0  0  0  0  0  0  0  0
    3.2690   -0.2520   -0.0570 C   0  0  0  0  0  0  0  0  0  0  0  0
    4.9980   -0.3620   -0.0870 Cl  0  0  0  0  0  0  0  0  0  0  0  0
    2.5780    0.6550   -0.7900 C   0  0  0  0  0  0  0  0  0  0  0  0
    1.2080    0.7710   -0.7910 C   0  0  0  0  0  0  0  0  0  0  0  0
    0.6050    2.0320   -1.8380 Cl  0  0  0  0  0  0  0  0  0  0  0  0
    0.4130   -0.0740   -0.0050 C   0  0  0  0  0  0  0  0  0  0  0  0
   -0.9420   -0.1220    0.1340 C   0  0  0  0  0  0  0  0  0  0  0  0
  1  2  1  0
  2  3  2  0
  2 16  1  0
  3  4  1  0
  4  5  2  0
  5  6  1  0
  6  7  1  0
  6 16  2  0
  7  8  1  0
  8  9  2  0
  8 15  1  0
  9 10  1  0
 10 11  1  0
 10 12  2  0
 12 13  1  0
 13 14  1  0
 13 15  2  0
 15 16  1  0
M  END
