
     RDKit          3D

 16 17  0  0  0  0  0  0  0  0999 V2000
    4.6470    0.5100   -1.0520 O   0  0  0  0  0  0  0  0  0  0  0  0
    3.6180    0.7420   -0.3540 C   0  0  0  0  0  0  0  0  0  0  0  0
    3.5300    1.6670    0.7910 C   0  0  0  0  0  0  0  0  0  0  0  0
    2.2890    1.6200    1.2390 C   0  0  0  0  0  0  0  0  0  0  0  0
    1.5000    0.7030    0.4610 C   0  0  0  0  0  0  0  0  0  0  0  0
    0.1140    0.4200    0.6870 N   0  0  0  0  0  0  0  0  0  0  0  0
   -0.4340   -0.8930    0.4680 C   0  0  0  0  0  0  0  0  0  0  0  0
    0.2900   -1.9250    0.6550 N   0  0  0  0  0  0  0  0  0  0  0  0
   -0.6900   -3.3460    0.3030 S   0  0  0  0  0  0  0  0  0  0  0  0
   -2.3000   -2.4470    0.5010 C   0  0  0  0  0  0  0  0  0  0  0  0
   -1.7910   -1.0990    0.0290 C   0  0  0  0  0  0  0  0  0  0  0  0
   -2.5620   -0.3210   -0.7040 C   0  0  0  0  0  0  0  0  0  0  0  0
   -2.1700    0.9990   -1.2640 C   0  0  0  0  0  0  0  0  0  0  0  0
   -3.1730    2.3300   -0.6550 Cl  0  0  0  0  0  0  0  0  0  0  0  0
    2.2760    0.1840   -0.4760 C   0  0  0  0  0  0  0  0  0  0  0  0
    1.7800   -0.9840   -1.6750 Cl  0  0  0  0  0  0  0  0  0  0  0  0
  1  2  2  0
  2  3  1  0
  2 15  1  0
  3  4  2  0
  4  5  1  0
  5  6  1  0
  5 15  2  0
  6  7  1  0
  7  8  2  0
  7 11  1  0
  8  9  1  0
  9 10  1  0
 10 11  1  0
 11 12  2  3
 12 13  1  0
 13 14  1  0
 15 16  1  0
M  END
