
     RDKit          3D

 16 18  0  0  0  0  0  0  0  0999 V2000
    5.2560    0.0960   -0.4770 O   0  0  0  0  0  0  0  0  0  0  0  0
    4.0640    0.1300   -0.3320 C   0  0  0  0  0  0  0  0  0  0  0  0
    3.0210   -0.5890   -0.6940 N   0  0  0  0  0  0  0  0  0  0  0  0
    1.8030   -0.2850   -0.3710 C   0  0  0  0  0  0  0  0  0  0  0  0
    0.6650   -0.9980   -0.7180 N   0  0  0  0  0  0  0  0  0  0  0  0
   -0.5380   -0.6030   -0.3380 C   0  0  0  0  0  0  0  0  0  0  0  0
   -1.6150   -1.4020   -0.7480 C   0  0  0  0  0  0  0  0  0  0  0  0
   -2.8730   -1.0150   -0.3670 C   0  0  0  0  0  0  0  0  0  0  0  0
   -3.1500    0.1080    0.3940 C   0  0  0  0  0  0  0  0  0  0  0  0
   -4.7910    0.5200    0.8310 Cl  0  0  0  0  0  0  0  0  0  0  0  0
   -2.0770    0.8960    0.7970 C   0  0  0  0  0  0  0  0  0  0  0  0
   -0.8260    0.5090    0.4160 C   0  0  0  0  0  0  0  0  0  0  0  0
    0.3020    1.2570    0.7880 C   0  0  0  0  0  0  0  0  0  0  0  0
    0.1370    2.6990    1.7450 Cl  0  0  0  0  0  0  0  0  0  0  0  0
    1.5370    0.8300    0.3830 C   0  0  0  0  0  0  0  0  0  0  0  0
    3.2110    1.4870    0.6400 S   0  0  0  0  0  0  0  0  0  0  0  0
  1  2  2  0
  2  3  1  0
  2 16  1  0
  3  4  1  0
  4  5  2  0
  4 15  1  0
  5  6  1  0
  6  7  2  0
  6 12  1  0
  7  8  1  0
  8  9  2  0
  9 10  1  0
  9 11  1  0
 11 12  2  0
 12 13  1  0
 13 14  1  0
 13 15  2  0
 15 16  1  0
M  END
