
     RDKit          3D

 16 18  0  0  0  0  0  0  0  0999 V2000
    1.5990   -2.2410    0.3590 O   0  0  0  0  0  0  0  0  0  0  0  0
    1.9000   -0.9250    0.1710 C   0  0  0  0  0  0  0  0  0  0  0  0
    3.2160   -0.6400    0.1680 N   0  0  0  0  0  0  0  0  0  0  0  0
    3.7500    0.5460    0.0070 C   0  0  0  0  0  0  0  0  0  0  0  0
    2.9010    1.5660   -0.1720 N   0  0  0  0  0  0  0  0  0  0  0  0
    1.5510    1.3310   -0.1770 C   0  0  0  0  0  0  0  0  0  0  0  0
    0.1990    2.4990   -0.3930 S   0  0  0  0  0  0  0  0  0  0  0  0
   -1.0900    1.2410   -0.2430 C   0  0  0  0  0  0  0  0  0  0  0  0
   -2.4390    1.4330   -0.3130 C   0  0  0  0  0  0  0  0  0  0  0  0
   -3.2520    0.3490   -0.1760 C   0  0  0  0  0  0  0  0  0  0  0  0
   -4.9870    0.5690   -0.2610 Cl  0  0  0  0  0  0  0  0  0  0  0  0
   -2.6500   -0.8470    0.0210 C   0  0  0  0  0  0  0  0  0  0  0  0
   -1.2720   -1.0260    0.0900 C   0  0  0  0  0  0  0  0  0  0  0  0
   -0.7740   -2.6670    0.3500 Cl  0  0  0  0  0  0  0  0  0  0  0  0
   -0.4030    0.0830   -0.0490 C   0  0  0  0  0  0  0  0  0  0  0  0
    0.9490    0.0950   -0.0100 C   0  0  0  0  0  0  0  0  0  0  0  0
  1  2  1  0
  2  3  2  0
  2 16  1  0
  3  4  1  0
  4  5  2  0
  5  6  1  0
  6  7  1  0
  6 16  2  0
  7  8  1  0
  8  9  2  0
  8 15  1  0
  9 10  1  0
 10 11  1  0
 10 12  2  0
 12 13  1  0
 13 14  1  0
 13 15  2  0
 15 16  1  0
M  END
