
     RDKit          3D

 16 18  0  0  0  0  0  0  0  0999 V2000
    3.2070   -1.9380    0.5680 O   0  0  0  0  0  0  0  0  0  0  0  0
    2.4850   -0.8250    0.1650 C   0  0  0  0  0  0  0  0  0  0  0  0
    3.1240    0.3060   -0.3390 C   0  0  0  0  0  0  0  0  0  0  0  0
    2.3180    1.3390   -0.7040 C   0  0  0  0  0  0  0  0  0  0  0  0
    3.1320    2.7790   -1.3450 Cl  0  0  0  0  0  0  0  0  0  0  0  0
    0.9650    1.3440   -0.6130 C   0  0  0  0  0  0  0  0  0  0  0  0
    0.1100    2.7760   -1.1370 Cl  0  0  0  0  0  0  0  0  0  0  0  0
    0.2840    0.2050   -0.1030 C   0  0  0  0  0  0  0  0  0  0  0  0
    1.0960   -0.8110    0.2550 C   0  0  0  0  0  0  0  0  0  0  0  0
   -0.0580   -2.0740    0.8480 S   0  0  0  0  0  0  0  0  0  0  0  0
   -1.5220   -1.1150    0.5580 C   0  0  0  0  0  0  0  0  0  0  0  0
   -2.8150   -1.4150    0.7690 N   0  0  0  0  0  0  0  0  0  0  0  0
   -3.7730   -0.5310    0.4750 C   0  0  0  0  0  0  0  0  0  0  0  0
   -3.3460    0.6690   -0.0420 C   0  0  0  0  0  0  0  0  0  0  0  0
   -2.0720    0.9550   -0.2460 N   0  0  0  0  0  0  0  0  0  0  0  0
   -1.0480    0.0630    0.0460 C   0  0  0  0  0  0  0  0  0  0  0  0
  1  2  1  0
  2  3  2  0
  2  9  1  0
  3  4  1  0
  4  5  1  0
  4  6  2  0
  6  7  1  0
  6  8  1  0
  8  9  2  0
  8 16  1  0
  9 10  1  0
 10 11  1  0
 11 12  2  0
 11 16  1  0
 12 13  1  0
 13 14  2  0
 14 15  1  0
 15 16  2  0
M  END
