
     RDKit          3D

 16 18  0  0  0  0  0  0  0  0999 V2000
    3.3090   -0.6140    0.0150 C   0  0  0  0  0  0  0  0  0  0  0  0
    2.2080    0.3200   -0.2840 C   0  0  0  0  0  0  0  0  0  0  0  0
    0.9760   -0.0460   -0.0440 C   0  0  0  0  0  0  0  0  0  0  0  0
   -0.1790    0.7820   -0.2960 N   0  0  0  0  0  0  0  0  0  0  0  0
   -0.3770    2.0940   -0.8150 C   0  0  0  0  0  0  0  0  0  0  0  0
   -1.7840    2.5060   -0.8790 C   0  0  0  0  0  0  0  0  0  0  0  0
   -2.0390    3.6900   -1.3430 O   0  0  0  0  0  0  0  0  0  0  0  0
   -2.8740    1.6980   -0.4710 N   0  0  0  0  0  0  0  0  0  0  0  0
   -2.6170    0.5030   -0.0030 C   0  0  0  0  0  0  0  0  0  0  0  0
   -3.5870   -0.8750    0.6290 S   0  0  0  0  0  0  0  0  0  0  0  0
   -2.1690   -1.9670    0.9690 C   0  0  0  0  0  0  0  0  0  0  0  0
   -1.0240   -1.1290    0.5440 C   0  0  0  0  0  0  0  0  0  0  0  0
   -1.2820    0.0190    0.0960 C   0  0  0  0  0  0  0  0  0  0  0  0
    0.4880   -1.3460    0.5220 C   0  0  2  0  0  0  0  0  0  0  0  0
    1.0360   -1.6310    2.1630 Cl  0  0  0  0  0  0  0  0  0  0  0  0
    0.9180   -2.6280   -0.5960 Cl  0  0  0  0  0  0  0  0  0  0  0  0
  1  2  1  0
  2  3  2  3
  3  4  1  0
  3 14  1  0
  4  5  1  0
  4 13  1  0
  5  6  1  0
  6  7  2  0
  6  8  1  0
  8  9  2  0
  9 10  1  0
  9 13  1  0
 10 11  1  0
 11 12  1  0
 12 13  2  0
 12 14  1  0
 14 15  1  1
 14 16  1  0
M  END
