
     RDKit          3D

 16 17  0  0  0  0  0  0  0  0999 V2000
   -3.8470   -1.5950   -1.0450 O   0  0  0  0  0  0  0  0  0  0  0  0
   -2.7030   -1.1410   -0.7770 C   0  0  0  0  0  0  0  0  0  0  0  0
   -2.4380    0.1880   -1.0200 C   0  0  0  0  0  0  0  0  0  0  0  0
   -1.2420    0.7460   -0.7610 N   0  0  0  0  0  0  0  0  0  0  0  0
   -0.2640   -0.0440   -0.2380 C   0  0  0  0  0  0  0  0  0  0  0  0
   -0.5640   -1.3680   -0.0050 C   0  0  0  0  0  0  0  0  0  0  0  0
   -1.7410   -1.9510   -0.2530 N   0  0  0  0  0  0  0  0  0  0  0  0
    0.5790   -2.5110    0.7980 S   0  0  0  0  0  0  0  0  0  0  0  0
    1.2490   -1.5940    2.2220 C   0  0  0  0  0  0  0  0  0  0  0  0
    1.6690   -0.3490    2.2300 C   0  0  0  0  0  0  0  0  0  0  0  0
    2.2540    0.2370    3.7760 Cl  0  0  0  0  0  0  0  0  0  0  0  0
    1.7170    0.5430    1.1000 C   0  0  0  0  0  0  0  0  0  0  0  0
    0.9430    0.7340    0.0140 C   0  0  0  0  0  0  0  0  0  0  0  0
    1.3500    1.7690   -0.8680 C   0  0  0  0  0  0  0  0  0  0  0  0
    0.9440    2.2130   -1.9780 C   0  0  0  0  0  0  0  0  0  0  0  0
   -0.3590    1.7420   -3.0030 Cl  0  0  0  0  0  0  0  0  0  0  0  0
  1  2  2  0
  2  3  1  0
  2  7  1  0
  3  4  2  0
  4  5  1  0
  5  6  2  0
  5 13  1  0
  6  7  1  0
  6  8  1  0
  8  9  1  0
  9 10  2  0
 10 11  1  0
 10 12  1  0
 12 13  2  0
 13 14  1  0
 14 15  2  3
 15 16  1  0
M  END
