
     RDKit          3D

 11 11  0  0  0  0  0  0  0  0999 V2000
    1.6850   -1.2430    0.1790 C   0  0  0  0  0  0  0  0  0  0  0  0
    0.9010   -0.2240    0.9360 C   0  0  1  0  0  0  0  0  0  0  0  0
    1.7710    0.7720    1.3490 O   0  0  0  0  0  0  0  0  0  0  0  0
    1.5790    1.8510    0.6970 O   0  0  0  0  0  0  0  0  0  0  0  0
    0.7750    1.6180   -0.4170 C   0  0  1  0  0  0  0  0  0  0  0  0
    1.6040    1.1530   -1.4300 O   0  0  0  0  0  0  0  0  0  0  0  0
   -0.1090    0.5260    0.1490 C   0  0  2  0  0  0  0  0  0  0  0  0
   -1.0210    1.1780    1.0730 N   0  0  0  0  0  0  0  0  0  0  0  0
   -0.8470   -0.2500   -0.8770 C   0  0  0  0  0  0  0  0  0  0  0  0
   -1.5860   -1.3770   -0.1840 C   0  0  0  0  0  0  0  0  0  0  0  0
   -2.3050   -2.1440   -1.1280 O   0  0  0  0  0  0  0  0  0  0  0  0
  2  1  1  6
  2  3  1  0
  2  7  1  0
  3  4  1  0
  4  5  1  0
  5  6  1  6
  5  7  1  0
  7  8  1  1
  7  9  1  0
  9 10  1  0
 10 11  1  0
M  CHG  1   8   1
M  END
