
     RDKit          3D

 11 11  0  0  0  0  0  0  0  0999 V2000
    2.5730   -1.0330    0.3860 N   0  0  0  0  0  0  0  0  0  0  0  0
    1.3260   -0.7600   -0.2550 C   0  0  0  0  0  0  0  0  0  0  0  0
    0.6870    0.5190    0.1520 C   0  0  2  0  0  0  0  0  0  0  0  0
    0.3590    0.6550    1.5880 C   0  0  0  0  0  0  0  0  0  0  0  0
   -0.5250    1.7050    1.6430 O   0  0  0  0  0  0  0  0  0  0  0  0
   -1.2290    1.7710    0.4740 C   0  0  0  0  0  0  0  0  0  0  0  0
   -0.5940    0.8330   -0.5210 C   0  0  1  0  0  0  0  0  0  0  0  0
   -0.3250    1.4590   -1.7370 O   0  0  0  0  0  0  0  0  0  0  0  0
   -1.4830   -0.3370   -0.7960 C   0  0  0  0  0  0  0  0  0  0  0  0
   -1.8340   -1.0590    0.3310 O   0  0  0  0  0  0  0  0  0  0  0  0
   -2.6110   -2.0480   -0.0550 O   0  0  0  0  0  0  0  0  0  0  0  0
  1  2  1  0
  3  2  1  1
  3  4  1  0
  3  7  1  0
  4  5  1  0
  5  6  1  0
  6  7  1  0
  7  8  1  6
  7  9  1  0
  9 10  1  0
 10 11  1  0
M  CHG  1   1   1
M  END
