
     RDKit          3D

 32 36  0  0  0  0  0  0  0  0999 V2000
    0.7370   -1.9300    2.2400 C   0  0  0  0  0  0  0  0  0  0  0  0
    1.4830   -1.2380    1.1480 C   0  0  0  0  0  0  0  0  0  0  0  0
    2.7970   -1.5590    0.9050 C   0  0  0  0  0  0  0  0  0  0  0  0
    3.5720   -0.9280   -0.0520 C   0  0  0  0  0  0  0  0  0  0  0  0
    2.9680    0.0740   -0.7780 C   0  0  0  0  0  0  0  0  0  0  0  0
    1.6300    0.4520   -0.5750 C   0  0  0  0  0  0  0  0  0  0  0  0
    1.1940    1.7320   -1.2330 C   0  0  0  0  0  0  0  0  0  0  0  0
    0.9030   -0.2090    0.3690 C   0  0  0  0  0  0  0  0  0  0  0  0
   -0.5000    0.0550    0.6690 C   0  0  1  0  0  0  0  0  0  0  0  0
   -0.6050    1.3670    1.2690 O   0  0  0  0  0  0  0  0  0  0  0  0
   -1.5410    0.0370   -0.3700 C   0  0  1  0  0  0  0  0  0  0  0  0
   -2.8830    0.4090    0.2610 C   0  0  0  0  0  0  0  0  0  0  0  0
   -3.4770   -0.4650    1.1640 C   0  0  0  0  0  0  0  0  0  0  0  0
   -4.7420   -0.2130    1.6890 C   0  0  0  0  0  0  0  0  0  0  0  0
   -5.4360    0.9230    1.3160 C   0  0  0  0  0  0  0  0  0  0  0  0
   -6.8040    1.1820    1.8340 C   0  0  1  0  0  0  0  0  0  0  0  0
   -6.9960    0.6550    3.0870 F   0  0  0  0  0  0  0  0  0  0  0  0
   -6.9780    2.5500    1.8720 F   0  0  0  0  0  0  0  0  0  0  0  0
   -7.7580    0.5990    0.9900 F   0  0  0  0  0  0  0  0  0  0  0  0
   -4.8440    1.8020    0.4150 C   0  0  0  0  0  0  0  0  0  0  0  0
   -3.5920    1.5260   -0.0860 C   0  0  0  0  0  0  0  0  0  0  0  0
   -1.4170    0.6120   -1.7190 C   0  0  0  0  0  0  0  0  0  0  0  0
   -2.6370    0.1110   -2.5780 C   0  0  0  0  0  0  0  0  0  0  0  0
   -2.3660   -1.1890   -2.9840 O   0  0  0  0  0  0  0  0  0  0  0  0
   -1.5140   -1.8510   -2.0990 C   0  0  0  0  0  0  0  0  0  0  0  0
   -1.8500   -1.4800   -0.7120 C   0  0  0  0  0  0  0  0  0  0  0  0
    3.9480    0.6290   -1.7620 C   0  0  0  0  0  0  0  0  0  0  0  0
    5.2590    0.1660   -1.2310 C   0  0  1  0  0  0  0  0  0  0  0  0
    5.7280    1.0330   -0.0980 C   0  0  0  0  0  0  0  0  0  0  0  0
    6.3940    0.0360    0.8160 C   0  0  0  0  0  0  0  0  0  0  0  0
    5.9340   -1.1800    0.5640 C   0  0  0  0  0  0  0  0  0  0  0  0
    4.9440   -1.1310   -0.5130 C   0  0  1  0  0  0  0  0  0  0  0  0
  1  2  1  0
  2  3  2  0
  2  8  1  0
  3  4  1  0
  4  5  2  0
  4 32  1  0
  5  6  1  0
  5 27  1  0
  6  7  1  0
  6  8  2  0
  8  9  1  0
  9 10  1  6
  9 11  1  0
 11 12  1  1
 11 22  1  0
 11 26  1  0
 12 13  2  0
 12 21  1  0
 13 14  1  0
 14 15  2  0
 15 16  1  0
 15 20  1  0
 16 17  1  1
 16 18  1  0
 16 19  1  0
 20 21  2  0
 22 23  1  0
 23 24  1  0
 24 25  1  0
 25 26  1  0
 28 27  1  1
 28 29  1  0
 28 32  1  0
 29 30  1  0
 30 31  2  0
 32 31  1  1
M  END
