
     RDKit          3D

 33 35  0  0  0  0  0  0  0  0999 V2000
    5.2670    1.5780    2.0970 C   0  0  0  0  0  0  0  0  0  0  0  0
    4.1950    2.3770    1.4150 C   0  0  0  0  0  0  0  0  0  0  0  0
    2.8510    2.0060    1.8010 N   0  0  0  0  0  0  0  0  0  0  0  0
    1.9680    2.9470    1.1700 C   0  0  0  0  0  0  0  0  0  0  0  0
    1.5470    2.3280   -0.1520 C   0  0  0  0  0  0  0  0  0  0  0  0
    1.4260    0.8840    0.3000 C   0  0  0  0  0  0  0  0  0  0  0  0
    2.4540    0.7150    1.3460 C   0  0  2  0  0  0  0  0  0  0  0  0
    2.0150   -0.2130    2.4730 C   0  0  0  0  0  0  0  0  0  0  0  0
    1.5720   -1.4700    1.9860 N   0  0  0  0  0  0  0  0  0  0  0  0
    2.2250   -2.4960    1.3180 C   0  0  0  0  0  0  0  0  0  0  0  0
    1.4690   -3.4030    0.5530 C   0  0  0  0  0  0  0  0  0  0  0  0
    0.0280   -3.1190    0.4950 N   0  0  0  0  0  0  0  0  0  0  0  0
   -0.1460   -2.3020   -0.4840 C   0  0  0  0  0  0  0  0  0  0  0  0
   -1.4620   -1.9460   -0.6520 N   0  0  0  0  0  0  0  0  0  0  0  0
   -1.7910   -0.9720   -1.6240 C   0  0  0  0  0  0  0  0  0  0  0  0
   -0.8050   -0.5550   -2.2340 O   0  0  0  0  0  0  0  0  0  0  0  0
   -3.1880   -0.6180   -1.7280 C   0  0  0  0  0  0  0  0  0  0  0  0
   -3.5360    0.7220   -1.4670 C   0  0  0  0  0  0  0  0  0  0  0  0
   -4.8250    1.1370   -1.4380 C   0  0  0  0  0  0  0  0  0  0  0  0
   -5.2340    2.5150   -1.1610 C   0  0  0  0  0  0  0  0  0  0  0  0
   -4.2470    3.6010   -0.8540 C   0  0  0  0  0  0  0  0  0  0  0  0
   -6.4300    2.8700   -1.1610 O   0  0  0  0  0  0  0  0  0  0  0  0
   -5.8320    0.2010   -1.6780 C   0  0  0  0  0  0  0  0  0  0  0  0
   -7.1940    0.6480   -1.6500 N   0  0  0  0  0  0  0  0  0  0  0  0
   -5.4980   -1.0760   -1.9280 N   0  0  0  0  0  0  0  0  0  0  0  0
   -4.2150   -1.4880   -1.9550 C   0  0  0  0  0  0  0  0  0  0  0  0
   -3.9360   -2.7070   -2.1940 O   0  0  0  0  0  0  0  0  0  0  0  0
    1.9880   -4.4510   -0.1350 C   0  0  0  0  0  0  0  0  0  0  0  0
    1.2630   -5.2260   -0.7990 O   0  0  0  0  0  0  0  0  0  0  0  0
    3.3290   -4.6630   -0.0990 N   0  0  0  0  0  0  0  0  0  0  0  0
    4.0650   -3.8310    0.6100 N   0  0  0  0  0  0  0  0  0  0  0  0
    3.5740   -2.7780    1.3060 C   0  0  0  0  0  0  0  0  0  0  0  0
    4.3300   -2.0370    1.9580 O   0  0  0  0  0  0  0  0  0  0  0  0
  1  2  1  0
  2  3  1  0
  3  4  1  0
  3  7  1  0
  4  5  1  0
  5  6  1  0
  6  7  1  0
  7  8  1  1
  8  9  1  0
  9 10  1  0
 10 11  2  0
 10 32  1  0
 11 12  1  0
 11 28  1  0
 12 13  2  3
 13 14  1  0
 14 15  1  0
 15 16  2  0
 15 17  1  0
 17 18  2  0
 17 26  1  0
 18 19  1  0
 19 20  1  0
 19 23  2  0
 20 21  1  0
 20 22  2  0
 23 24  1  0
 23 25  1  0
 25 26  1  0
 26 27  2  0
 28 29  2  0
 28 30  1  0
 30 31  1  0
 31 32  1  0
 32 33  2  0
M  END
