
     RDKit          3D

 32 36  0  0  0  0  0  0  0  0999 V2000
    5.7490   -3.4860   -0.2660 C   0  0  0  0  0  0  0  0  0  0  0  0
    4.5450   -3.1640   -0.8950 O   0  0  0  0  0  0  0  0  0  0  0  0
    3.7760   -2.0720   -0.5170 C   0  0  0  0  0  0  0  0  0  0  0  0
    4.2240   -1.2810    0.5160 C   0  0  0  0  0  0  0  0  0  0  0  0
    3.4210   -0.1930    0.8630 C   0  0  0  0  0  0  0  0  0  0  0  0
    2.2350    0.0920    0.2140 C   0  0  0  0  0  0  0  0  0  0  0  0
    1.8310   -0.6950   -0.7810 C   0  0  0  0  0  0  0  0  0  0  0  0
    2.5990   -1.7820   -1.1550 C   0  0  0  0  0  0  0  0  0  0  0  0
    0.5610   -0.4850   -1.5110 C   0  0  1  0  0  0  0  0  0  0  0  0
   -0.0900   -1.7490   -1.4090 O   0  0  0  0  0  0  0  0  0  0  0  0
   -0.3480    0.5690   -0.9160 C   0  0  2  0  0  0  0  0  0  0  0  0
   -1.2450   -0.0670   -0.0020 C   0  0  1  0  0  0  0  0  0  0  0  0
   -2.0520    0.7210    0.9750 C   0  0  0  0  0  0  0  0  0  0  0  0
   -2.3730   -0.5150    1.8880 C   0  0  1  0  0  0  0  0  0  0  0  0
   -3.4000   -0.0980    2.8780 C   0  0  0  0  0  0  0  0  0  0  0  0
   -2.9340    0.9360    3.6460 F   0  0  0  0  0  0  0  0  0  0  0  0
   -2.9850   -1.3060    0.7400 C   0  0  0  0  0  0  0  0  0  0  0  0
   -4.0430   -2.1730    0.6990 C   0  0  0  0  0  0  0  0  0  0  0  0
   -4.6960   -2.5260    1.8280 F   0  0  0  0  0  0  0  0  0  0  0  0
   -4.4770   -2.7140   -0.4900 C   0  0  0  0  0  0  0  0  0  0  0  0
   -3.8210   -2.3650   -1.6600 C   0  0  0  0  0  0  0  0  0  0  0  0
   -4.2160   -2.8740   -2.8640 F   0  0  0  0  0  0  0  0  0  0  0  0
   -2.7540   -1.4960   -1.6460 C   0  0  0  0  0  0  0  0  0  0  0  0
   -2.3260   -0.9620   -0.4520 C   0  0  0  0  0  0  0  0  0  0  0  0
   -0.9180    1.2410   -2.1590 C   0  0  0  0  0  0  0  0  0  0  0  0
   -1.9290    2.2820   -1.8590 C   0  0  0  0  0  0  0  0  0  0  0  0
   -1.4560    3.2400   -0.8190 C   0  0  0  0  0  0  0  0  0  0  0  0
   -0.1590    2.9960   -0.1870 C   0  0  0  0  0  0  0  0  0  0  0  0
    0.4940    1.6640   -0.3260 C   0  0  1  0  0  0  0  0  0  0  0  0
    1.4960    1.3100    0.6930 C   0  0  2  0  0  0  0  0  0  0  0  0
    2.5610    2.4260    0.6600 C   0  0  0  0  0  0  0  0  0  0  0  0
    1.1550    1.0820    2.0900 C   0  0  0  0  0  0  0  0  0  0  0  0
  1  2  1  0
  2  3  1  0
  3  4  2  0
  3  8  1  0
  4  5  1  0
  5  6  2  0
  6  7  1  0
  6 30  1  0
  7  8  2  0
  7  9  1  0
  9 10  1  1
  9 11  1  0
 11 12  1  0
 11 25  1  6
 11 29  1  0
 12 13  1  6
 12 24  1  0
 13 14  1  0
 14 15  1  1
 14 17  1  0
 15 16  1  0
 17 18  2  0
 17 24  1  0
 18 19  1  0
 18 20  1  0
 20 21  2  0
 21 22  1  0
 21 23  1  0
 23 24  2  0
 25 26  1  0
 26 27  1  0
 27 28  1  0
 29 28  1  1
 29 30  1  0
 30 31  1  1
 30 32  1  0
M  END
