
     RDKit          3D

 33 35  0  0  0  0  0  0  0  0999 V2000
   -3.7840    3.2620   -0.2030 C   0  0  0  0  0  0  0  0  0  0  0  0
   -4.4010    2.0720    0.4330 C   0  0  0  0  0  0  0  0  0  0  0  0
   -5.0250    1.0960   -0.5240 C   0  0  2  0  0  0  0  0  0  0  0  0
   -5.6220   -0.0690    0.2000 C   0  0  0  0  0  0  0  0  0  0  0  0
   -6.6510    0.3990    1.0900 O   0  0  0  0  0  0  0  0  0  0  0  0
   -4.2990    0.8250   -1.7600 C   0  0  0  0  0  0  0  0  0  0  0  0
   -2.9410    0.2780   -1.7550 C   0  0  0  0  0  0  0  0  0  0  0  0
   -2.7090   -1.0720   -1.2320 C   0  0  0  0  0  0  0  0  0  0  0  0
   -3.6970   -1.7970   -1.0340 O   0  0  0  0  0  0  0  0  0  0  0  0
   -1.3910   -1.5460   -0.9550 N   0  0  0  0  0  0  0  0  0  0  0  0
   -1.1160   -2.8180   -0.4580 C   0  0  0  0  0  0  0  0  0  0  0  0
   -1.9780   -3.8260   -0.1470 C   0  0  0  0  0  0  0  0  0  0  0  0
   -1.5830   -5.0750    0.3500 C   0  0  0  0  0  0  0  0  0  0  0  0
   -0.2540   -5.3290    0.5480 C   0  0  0  0  0  0  0  0  0  0  0  0
    0.6490   -4.3350    0.2460 C   0  0  0  0  0  0  0  0  0  0  0  0
    0.2390   -3.1190   -0.2410 C   0  0  0  0  0  0  0  0  0  0  0  0
    1.2110   -2.1310   -0.5350 N   0  0  0  0  0  0  0  0  0  0  0  0
    1.5820   -1.5870   -1.6580 N   0  0  0  0  0  0  0  0  0  0  0  0
    2.5520   -0.6830   -1.4600 N   0  0  0  0  0  0  0  0  0  0  0  0
    2.8130   -0.6480   -0.1440 C   0  0  0  0  0  0  0  0  0  0  0  0
    3.8230    0.2180    0.5150 C   0  0  0  0  0  0  0  0  0  0  0  0
    3.9720    0.1560    1.7520 O   0  0  0  0  0  0  0  0  0  0  0  0
    4.6140    1.1070   -0.2380 N   0  0  0  0  0  0  0  0  0  0  0  0
    5.6030    1.9850    0.2220 C   0  0  0  0  0  0  0  0  0  0  0  0
    5.9700    2.1160    1.5290 C   0  0  0  0  0  0  0  0  0  0  0  0
    6.9380    2.9880    1.9010 N   0  0  0  0  0  0  0  0  0  0  0  0
    7.5590    3.7430    0.9980 C   0  0  0  0  0  0  0  0  0  0  0  0
    8.4640    4.5540    1.3740 O   0  0  0  0  0  0  0  0  0  0  0  0
    7.2190    3.6340   -0.2850 N   0  0  0  0  0  0  0  0  0  0  0  0
    6.2640    2.7800   -0.6920 C   0  0  0  0  0  0  0  0  0  0  0  0
    5.9560    2.6910   -1.9020 O   0  0  0  0  0  0  0  0  0  0  0  0
    1.9660   -1.5620    0.4350 C   0  0  0  0  0  0  0  0  0  0  0  0
    1.9310   -1.8260    1.8280 N   0  0  0  0  0  0  0  0  0  0  0  0
  1  2  1  0
  3  2  1  1
  3  4  1  0
  3  6  1  0
  4  5  1  0
  6  7  1  0
  7  8  1  0
  8  9  2  0
  8 10  1  0
 10 11  1  0
 11 12  2  0
 11 16  1  0
 12 13  1  0
 13 14  2  0
 14 15  1  0
 15 16  2  0
 16 17  1  0
 17 18  1  0
 17 32  1  0
 18 19  2  0
 19 20  1  0
 20 21  1  0
 20 32  2  0
 21 22  2  0
 21 23  1  0
 23 24  1  0
 24 25  2  0
 24 30  1  0
 25 26  1  0
 26 27  1  0
 27 28  2  0
 27 29  1  0
 29 30  1  0
 30 31  2  0
 32 33  1  0
M  END
