
     RDKit          3D

 33 35  0  0  0  0  0  0  0  0999 V2000
   -5.8280    0.7280   -1.8480 C   0  0  0  0  0  0  0  0  0  0  0  0
   -7.0210    1.0980   -1.4640 C   0  0  0  0  0  0  0  0  0  0  0  0
   -7.2770    1.7630   -0.1840 C   0  0  0  0  0  0  0  0  0  0  0  0
   -6.0600    1.8830    0.6990 C   0  0  0  0  0  0  0  0  0  0  0  0
   -5.5190    0.5540    1.0770 C   0  0  0  0  0  0  0  0  0  0  0  0
   -6.0880   -0.5350    0.7260 O   0  0  0  0  0  0  0  0  0  0  0  0
   -4.3390    0.3970    1.8500 N   0  0  0  0  0  0  0  0  0  0  0  0
   -3.8280   -0.8960    2.2090 C   0  0  2  0  0  0  0  0  0  0  0  0
   -3.8700   -1.0650    3.7330 C   0  0  0  0  0  0  0  0  0  0  0  0
   -2.4550   -1.1260    1.6960 C   0  0  0  0  0  0  0  0  0  0  0  0
   -1.8880   -0.1870    1.0150 N   0  0  0  0  0  0  0  0  0  0  0  0
   -0.6080   -0.0930    0.3960 C   0  0  0  0  0  0  0  0  0  0  0  0
   -0.3060    1.1370   -0.0480 N   0  0  0  0  0  0  0  0  0  0  0  0
    0.8810    1.4090   -0.6660 C   0  0  0  0  0  0  0  0  0  0  0  0
    1.8230    0.4250   -0.8620 C   0  0  0  0  0  0  0  0  0  0  0  0
    3.1040    0.7100   -1.5280 C   0  0  0  0  0  0  0  0  0  0  0  0
    3.3900    1.8560   -1.9440 O   0  0  0  0  0  0  0  0  0  0  0  0
    4.0510   -0.2850   -1.7230 O   0  0  0  0  0  0  0  0  0  0  0  0
    5.2780   -0.0460   -2.3520 C   0  0  0  0  0  0  0  0  0  0  0  0
    6.4200    0.3170   -1.8190 C   0  0  0  0  0  0  0  0  0  0  0  0
    6.6360    0.5570   -0.3650 C   0  0  0  0  0  0  0  0  0  0  0  0
    7.6570   -0.3450    0.1460 N   0  0  0  0  0  0  0  0  0  0  0  0
    7.4410    0.4530   -2.8450 C   0  0  0  0  0  0  0  0  0  0  0  0
    8.8020    0.8300   -2.6480 N   0  0  0  0  0  0  0  0  0  0  0  0
    6.8840    0.1650   -3.9840 N   0  0  0  0  0  0  0  0  0  0  0  0
    5.5160   -0.1650   -3.7870 C   0  0  0  0  0  0  0  0  0  0  0  0
    4.6750   -0.4940   -4.6630 O   0  0  0  0  0  0  0  0  0  0  0  0
    1.5220   -0.8390   -0.4100 C   0  0  0  0  0  0  0  0  0  0  0  0
    0.3100   -1.1070    0.2200 C   0  0  0  0  0  0  0  0  0  0  0  0
    0.1900   -2.4760    0.6130 N   0  0  0  0  0  0  0  0  0  0  0  0
   -0.7110   -3.0450    1.5560 C   0  0  0  0  0  0  0  0  0  0  0  0
   -0.4540   -4.1880    2.0130 O   0  0  0  0  0  0  0  0  0  0  0  0
   -1.9090   -2.3970    2.0280 N   0  0  0  0  0  0  0  0  0  0  0  0
  1  2  2  0
  2  3  1  0
  3  4  1  0
  4  5  1  0
  5  6  2  0
  5  7  1  0
  7  8  1  0
  8  9  1  1
  8 10  1  0
 10 11  2  0
 10 33  1  0
 11 12  1  0
 12 13  2  0
 12 29  1  0
 13 14  1  0
 14 15  2  0
 15 16  1  0
 15 28  1  0
 16 17  2  0
 16 18  1  0
 18 19  1  0
 19 20  2  0
 19 26  1  0
 20 21  1  0
 20 23  1  0
 21 22  1  0
 23 24  1  0
 23 25  2  0
 25 26  1  0
 26 27  2  0
 28 29  2  0
 29 30  1  0
 30 31  1  0
 31 32  2  0
 31 33  1  0
M  END
