
     RDKit          3D

 33 35  0  0  0  0  0  0  0  0999 V2000
   -4.1430    1.3110    2.8320 C   0  0  0  0  0  0  0  0  0  0  0  0
   -3.9820    0.2380    1.9940 O   0  0  0  0  0  0  0  0  0  0  0  0
   -3.4210    0.5710    0.7630 C   0  0  1  0  0  0  0  0  0  0  0  0
   -2.1040   -0.0670    0.6700 C   0  0  0  0  0  0  0  0  0  0  0  0
   -1.7540   -1.0020    1.6060 C   0  0  0  0  0  0  0  0  0  0  0  0
   -0.4860   -1.6450    1.5580 C   0  0  0  0  0  0  0  0  0  0  0  0
   -0.1660   -2.6270    2.5690 C   0  0  0  0  0  0  0  0  0  0  0  0
   -1.1690   -2.8960    3.5740 N   0  0  0  0  0  0  0  0  0  0  0  0
    0.9060   -3.2330    2.6080 O   0  0  0  0  0  0  0  0  0  0  0  0
    0.3980   -1.3370    0.5780 C   0  0  0  0  0  0  0  0  0  0  0  0
    1.6750   -1.8990    0.4390 N   0  0  0  0  0  0  0  0  0  0  0  0
    2.5170   -1.4800   -0.6580 C   0  0  0  0  0  0  0  0  0  0  0  0
    2.0490   -0.6310   -1.4370 O   0  0  0  0  0  0  0  0  0  0  0  0
    3.8110   -2.0460   -0.7890 N   0  0  0  0  0  0  0  0  0  0  0  0
    4.6580   -1.6240   -1.8920 C   0  0  0  0  0  0  0  0  0  0  0  0
    5.1550   -0.2770   -1.5400 C   0  0  0  0  0  0  0  0  0  0  0  0
    4.7140    0.8010   -2.2710 C   0  0  0  0  0  0  0  0  0  0  0  0
    5.1760    2.0600   -1.9320 C   0  0  0  0  0  0  0  0  0  0  0  0
    4.7870    3.0710   -2.5880 O   0  0  0  0  0  0  0  0  0  0  0  0
    6.0350    2.1390   -0.8980 N   0  0  0  0  0  0  0  0  0  0  0  0
    6.4570    1.0830   -0.1930 C   0  0  0  0  0  0  0  0  0  0  0  0
    7.3680    1.1870    0.9060 N   0  0  0  0  0  0  0  0  0  0  0  0
    6.0080   -0.1560   -0.5200 N   0  0  0  0  0  0  0  0  0  0  0  0
    0.0030   -0.3990   -0.3310 N   0  0  0  0  0  0  0  0  0  0  0  0
   -1.1820    0.2180   -0.3070 C   0  0  0  0  0  0  0  0  0  0  0  0
   -1.5100    1.2300   -1.3510 C   0  0  0  0  0  0  0  0  0  0  0  0
   -4.3730    0.1820   -0.2760 C   0  0  0  0  0  0  0  0  0  0  0  0
   -4.7520   -1.0370   -0.6370 N   0  0  0  0  0  0  0  0  0  0  0  0
   -5.6570   -0.9830   -1.6430 C   0  0  0  0  0  0  0  0  0  0  0  0
   -5.8720    0.3400   -1.9460 C   0  0  0  0  0  0  0  0  0  0  0  0
   -5.0590    1.0800   -1.0800 C   0  0  0  0  0  0  0  0  0  0  0  0
   -4.9670    2.5340   -1.0470 C   0  0  0  0  0  0  0  0  0  0  0  0
   -5.6440    3.2100   -1.8370 O   0  0  0  0  0  0  0  0  0  0  0  0
  1  2  1  0
  3  2  1  1
  3  4  1  0
  3 27  1  0
  4  5  2  0
  4 25  1  0
  5  6  1  0
  6  7  1  0
  6 10  2  0
  7  8  1  0
  7  9  2  0
 10 11  1  0
 10 24  1  0
 11 12  1  0
 12 13  2  0
 12 14  1  0
 14 15  1  0
 15 16  1  0
 16 17  2  0
 16 23  1  0
 17 18  1  0
 18 19  2  0
 18 20  1  0
 20 21  1  0
 21 22  1  0
 21 23  2  0
 24 25  2  0
 25 26  1  0
 27 28  1  0
 27 31  2  0
 28 29  1  0
 29 30  2  0
 30 31  1  0
 31 32  1  0
 32 33  2  0
M  END
