
     RDKit          3D

 32 36  0  0  0  0  0  0  0  0999 V2000
   -4.2060    0.6620    0.3220 C   0  0  0  0  0  0  0  0  0  0  0  0
   -2.9740    0.7260   -0.5610 C   0  0  1  0  0  0  0  0  0  0  0  0
   -3.4930    1.3840   -1.8560 C   0  0  0  0  0  0  0  0  0  0  0  0
   -2.0180    1.6430    0.1160 C   0  0  0  0  0  0  0  0  0  0  0  0
   -2.5010    2.6480    0.8970 F   0  0  0  0  0  0  0  0  0  0  0  0
   -0.7140    1.5270   -0.0060 C   0  0  0  0  0  0  0  0  0  0  0  0
    0.1630    2.4430    0.6710 C   0  0  0  0  0  0  0  0  0  0  0  0
    1.3160    2.9820    0.1420 C   0  0  0  0  0  0  0  0  0  0  0  0
    1.8710    3.8090    1.0960 C   0  0  0  0  0  0  0  0  0  0  0  0
    1.0220    3.7350    2.1720 C   0  0  0  0  0  0  0  0  0  0  0  0
    1.1480    4.3760    3.3540 F   0  0  0  0  0  0  0  0  0  0  0  0
    0.0350    2.9250    1.8830 O   0  0  0  0  0  0  0  0  0  0  0  0
   -0.1920    0.4410   -0.8390 C   0  0  1  0  0  0  0  0  0  0  0  0
    1.2530    0.2290   -0.8000 C   0  0  0  0  0  0  0  0  0  0  0  0
    2.0020    0.0450   -1.9490 C   0  0  0  0  0  0  0  0  0  0  0  0
    3.3630   -0.1570   -1.9460 C   0  0  0  0  0  0  0  0  0  0  0  0
    4.0240   -0.1790   -0.7430 C   0  0  0  0  0  0  0  0  0  0  0  0
    5.4070   -0.3880   -0.7610 C   0  0  0  0  0  0  0  0  0  0  0  0
    6.0330   -0.4050    0.4650 C   0  0  0  0  0  0  0  0  0  0  0  0
    5.3450   -0.2270    1.6470 C   0  0  0  0  0  0  0  0  0  0  0  0
    4.0010   -0.0260    1.6380 C   0  0  0  0  0  0  0  0  0  0  0  0
    3.3140   -0.0000    0.4200 C   0  0  0  0  0  0  0  0  0  0  0  0
    1.9420    0.2020    0.3890 C   0  0  0  0  0  0  0  0  0  0  0  0
   -0.9820   -0.8280   -0.7850 C   0  0  1  0  0  0  0  0  0  0  0  0
   -1.1170   -1.6610    0.3850 C   0  0  2  0  0  0  0  0  0  0  0  0
   -0.8300   -1.2450    1.7670 C   0  0  0  0  0  0  0  0  0  0  0  0
   -0.5830   -3.0990    0.2020 C   0  0  0  0  0  0  0  0  0  0  0  0
   -2.6400   -1.7130    0.1680 C   0  0  1  0  0  0  0  0  0  0  0  0
   -3.1400   -3.0370   -0.3800 C   0  0  0  0  0  0  0  0  0  0  0  0
   -3.3590   -1.4180    1.2950 F   0  0  0  0  0  0  0  0  0  0  0  0
   -2.4570   -0.6270   -0.8480 C   0  0  1  0  0  0  0  0  0  0  0  0
   -3.0200   -1.0810   -2.0710 O   0  0  0  0  0  0  0  0  0  0  0  0
  2  1  1  1
  2  3  1  0
  2  4  1  0
  2 31  1  0
  4  5  1  0
  4  6  2  0
  6  7  1  0
  6 13  1  0
  7  8  2  0
  7 12  1  0
  8  9  1  0
  9 10  2  0
 10 11  1  0
 10 12  1  0
 13 14  1  1
 24 13  1  1
 14 15  2  0
 14 23  1  0
 15 16  1  0
 16 17  2  0
 17 18  1  0
 17 22  1  0
 18 19  2  0
 19 20  1  0
 20 21  2  0
 21 22  1  0
 22 23  2  0
 24 25  1  0
 24 31  1  0
 25 26  1  1
 25 27  1  0
 25 28  1  0
 28 29  1  6
 28 30  1  0
 28 31  1  0
 31 32  1  6
M  END
