
     RDKit          3D

 32 35  0  0  0  0  0  0  0  0999 V2000
    3.3170    0.9100   -0.2690 C   0  0  0  0  0  0  0  0  0  0  0  0
    2.8890   -0.4440    0.0790 C   0  0  2  0  0  0  0  0  0  0  0  0
    3.8600   -1.5000   -0.3590 C   0  0  0  0  0  0  0  0  0  0  0  0
    5.2260   -1.4860    0.1650 C   0  0  0  0  0  0  0  0  0  0  0  0
    6.1680   -0.4480   -0.1750 C   0  0  0  0  0  0  0  0  0  0  0  0
    6.0330    0.2720   -1.1870 O   0  0  0  0  0  0  0  0  0  0  0  0
    7.3380   -0.1630    0.6290 N   0  0  0  0  0  0  0  0  0  0  0  0
    8.2480    0.8900    0.2410 C   0  0  0  0  0  0  0  0  0  0  0  0
    9.3620    0.9880    1.2180 C   0  0  0  0  0  0  0  0  0  0  0  0
    9.4060    0.2240    2.1940 O   0  0  0  0  0  0  0  0  0  0  0  0
   10.3530    1.9330    1.0420 O   0  0  0  0  0  0  0  0  0  0  0  0
    1.5410   -0.8700   -0.3970 C   0  0  1  0  0  0  0  0  0  0  0  0
    1.3100   -2.2850    0.1120 C   0  0  0  0  0  0  0  0  0  0  0  0
   -0.1150   -2.2850    0.6550 C   0  0  0  0  0  0  0  0  0  0  0  0
   -0.7230   -1.1860   -0.1060 C   0  0  1  0  0  0  0  0  0  0  0  0
   -2.0670   -0.7430    0.2710 C   0  0  1  0  0  0  0  0  0  0  0  0
   -2.4630    0.4300   -0.5980 C   0  0  2  0  0  0  0  0  0  0  0  0
   -1.4120    1.5050   -0.6160 C   0  0  0  0  0  0  0  0  0  0  0  0
   -0.1210    0.8790   -1.1000 C   0  0  0  0  0  0  0  0  0  0  0  0
    0.3550   -0.0800   -0.0260 C   0  0  2  0  0  0  0  0  0  0  0  0
    0.3640    0.5600    1.3180 C   0  0  0  0  0  0  0  0  0  0  0  0
   -3.8220    0.9040   -0.1920 C   0  0  1  0  0  0  0  0  0  0  0  0
   -3.6150    2.2240    0.5680 C   0  0  0  0  0  0  0  0  0  0  0  0
   -4.6000    1.2360   -1.4230 C   0  0  0  0  0  0  0  0  0  0  0  0
   -5.8230    0.4060   -1.6360 C   0  0  0  0  0  0  0  0  0  0  0  0
   -6.7050    0.2950   -0.4420 C   0  0  1  0  0  0  0  0  0  0  0  0
   -7.4760   -0.8750   -0.4480 O   0  0  0  0  0  0  0  0  0  0  0  0
   -5.9830    0.3540    0.8620 C   0  0  0  0  0  0  0  0  0  0  0  0
   -4.5190   -0.0190    0.7560 C   0  0  1  0  0  0  0  0  0  0  0  0
   -4.3780   -1.4640    0.4690 C   0  0  0  0  0  0  0  0  0  0  0  0
   -3.0440   -1.8630   -0.1170 C   0  0  1  0  0  0  0  0  0  0  0  0
   -3.1920   -1.8290   -1.5190 O   0  0  0  0  0  0  0  0  0  0  0  0
  2  1  1  6
  2  3  1  0
  2 12  1  0
  3  4  1  0
  4  5  1  0
  5  6  2  0
  5  7  1  0
  7  8  1  0
  8  9  1  0
  9 10  2  0
  9 11  1  0
 12 13  1  1
 12 20  1  0
 13 14  1  0
 15 14  1  1
 15 16  1  0
 15 20  1  0
 16 17  1  0
 16 31  1  6
 17 18  1  1
 17 22  1  0
 18 19  1  0
 19 20  1  0
 20 21  1  1
 22 23  1  1
 22 24  1  0
 22 29  1  0
 24 25  1  0
 25 26  1  0
 26 27  1  6
 26 28  1  0
 29 28  1  6
 29 30  1  0
 30 31  1  0
 31 32  1  6
M  END
