
     RDKit          3D

 32 36  0  0  0  0  0  0  0  0999 V2000
   -0.1810    0.3600   -2.9720 C   0  0  0  0  0  0  0  0  0  0  0  0
    0.6270    0.3240   -1.7280 C   0  0  0  0  0  0  0  0  0  0  0  0
    1.6600    1.2500   -1.5770 C   0  0  0  0  0  0  0  0  0  0  0  0
    2.5620    1.1730   -0.5570 C   0  0  0  0  0  0  0  0  0  0  0  0
    2.4760    0.1480    0.3480 C   0  0  0  0  0  0  0  0  0  0  0  0
    1.4630   -0.8240    0.2700 C   0  0  0  0  0  0  0  0  0  0  0  0
    1.5850   -2.0350    1.1220 C   0  0  0  0  0  0  0  0  0  0  0  0
    0.5620   -0.7010   -0.7570 C   0  0  0  0  0  0  0  0  0  0  0  0
   -0.6490   -1.5480   -0.8850 C   0  0  1  0  0  0  0  0  0  0  0  0
   -0.1530   -2.8880   -0.9170 O   0  0  0  0  0  0  0  0  0  0  0  0
   -1.7290   -1.4110    0.1000 C   0  0  2  0  0  0  0  0  0  0  0  0
   -2.3230   -0.0100    0.0890 C   0  0  0  0  0  0  0  0  0  0  0  0
   -2.9820    0.5130   -0.9690 C   0  0  0  0  0  0  0  0  0  0  0  0
   -3.5980    1.7750   -0.9450 C   0  0  0  0  0  0  0  0  0  0  0  0
   -3.5130    2.4930    0.2180 C   0  0  0  0  0  0  0  0  0  0  0  0
   -4.2060    3.8290    0.2170 C   0  0  1  0  0  0  0  0  0  0  0  0
   -5.5270    3.5470   -0.1870 F   0  0  0  0  0  0  0  0  0  0  0  0
   -4.1890    4.4470    1.4300 F   0  0  0  0  0  0  0  0  0  0  0  0
   -3.5740    4.6000   -0.7330 F   0  0  0  0  0  0  0  0  0  0  0  0
   -2.8410    2.0040    1.3380 C   0  0  0  0  0  0  0  0  0  0  0  0
   -2.2490    0.7290    1.2400 C   0  0  0  0  0  0  0  0  0  0  0  0
   -1.7330   -1.9200    1.4820 C   0  0  0  0  0  0  0  0  0  0  0  0
   -2.0990   -3.3710    1.6660 C   0  0  0  0  0  0  0  0  0  0  0  0
   -1.9540   -4.1190    0.5080 O   0  0  0  0  0  0  0  0  0  0  0  0
   -2.6980   -3.6700   -0.5430 C   0  0  0  0  0  0  0  0  0  0  0  0
   -2.9720   -2.2080   -0.5070 C   0  0  0  0  0  0  0  0  0  0  0  0
    3.6330    0.2200    1.2980 C   0  0  0  0  0  0  0  0  0  0  0  0
    4.2400    1.5710    1.0670 C   0  0  1  0  0  0  0  0  0  0  0  0
    5.6970    1.5620    0.7380 C   0  0  0  0  0  0  0  0  0  0  0  0
    5.8200    2.1900   -0.6250 C   0  0  0  0  0  0  0  0  0  0  0  0
    4.6130    2.5020   -1.0790 C   0  0  0  0  0  0  0  0  0  0  0  0
    3.5770    2.1620   -0.1360 C   0  0  1  0  0  0  0  0  0  0  0  0
  1  2  1  0
  2  3  2  0
  2  8  1  0
  3  4  1  0
  4  5  2  0
  4 32  1  0
  5  6  1  0
  5 27  1  0
  6  7  1  0
  6  8  2  0
  8  9  1  0
  9 10  1  1
  9 11  1  0
 11 12  1  1
 11 22  1  0
 11 26  1  0
 12 13  2  0
 12 21  1  0
 13 14  1  0
 14 15  2  0
 15 16  1  0
 15 20  1  0
 16 17  1  6
 16 18  1  0
 16 19  1  0
 20 21  2  0
 22 23  1  0
 23 24  1  0
 24 25  1  0
 25 26  1  0
 28 27  1  6
 28 29  1  0
 28 32  1  0
 29 30  1  0
 30 31  2  0
 32 31  1  6
M  END
