
     RDKit          3D

 41 42  0  0  0  0  0  0  0  0999 V2000
   -6.1720    8.4230    0.2390 C   0  0  0  0  0  0  0  0  0  0  0  0
   -4.9530    7.5970    0.2190 N   0  0  0  0  0  0  0  0  0  0  0  0
   -3.7440    8.2490    0.5550 C   0  0  0  0  0  0  0  0  0  0  0  0
   -3.7870    9.4950    0.8510 O   0  0  0  0  0  0  0  0  0  0  0  0
   -2.4330    7.6280    0.5980 C   0  0  0  0  0  0  0  0  0  0  0  0
   -2.4510    6.2280    0.2560 N   0  0  0  0  0  0  0  0  0  0  0  0
   -1.2410    5.4550    0.2460 C   0  0  0  0  0  0  0  0  0  0  0  0
   -0.1800    6.0120    0.5370 O   0  0  0  0  0  0  0  0  0  0  0  0
   -1.3100    4.0180   -0.1110 C   0  0  0  0  0  0  0  0  0  0  0  0
   -2.4110    3.5060   -0.4000 O   0  0  0  0  0  0  0  0  0  0  0  0
   -0.1110    3.2720   -0.1120 N   0  0  0  0  0  0  0  0  0  0  0  0
    0.0280    1.9070   -0.4230 C   0  0  0  0  0  0  0  0  0  0  0  0
   -1.0020    1.1690   -0.8820 C   0  0  0  0  0  0  0  0  0  0  0  0
   -0.8090   -0.1910   -1.2100 C   0  0  0  0  0  0  0  0  0  0  0  0
   -1.9030   -0.8410   -1.6610 O   0  0  0  0  0  0  0  0  0  0  0  0
   -2.1850   -2.1140   -2.0650 C   0  0  0  0  0  0  0  0  0  0  0  0
   -2.0400   -3.1960   -1.0570 C   0  0  0  0  0  0  0  0  0  0  0  0
   -2.9290   -3.0450    0.1640 C   0  0  1  0  0  0  0  0  0  0  0  0
   -2.6170   -4.2570    1.0740 C   0  0  0  0  0  0  0  0  0  0  0  0
   -2.6150   -1.8640    0.9600 C   0  0  0  0  0  0  0  0  0  0  0  0
   -3.5520   -1.0720    1.4380 C   0  0  0  0  0  0  0  0  0  0  0  0
   -4.9790   -1.4000    1.1510 C   0  0  0  0  0  0  0  0  0  0  0  0
   -4.9740   -1.9070   -0.2980 C   0  0  2  0  0  0  0  0  0  0  0  0
   -6.3960   -2.0390   -0.8070 C   0  0  0  0  0  0  0  0  0  0  0  0
   -4.2830   -3.1550   -0.2900 N   0  0  0  0  0  0  0  0  0  0  0  0
    0.4600   -0.7130   -1.0430 C   0  0  0  0  0  0  0  0  0  0  0  0
    1.5100    0.0300   -0.5790 C   0  0  0  0  0  0  0  0  0  0  0  0
    2.8500   -0.5720   -0.4290 C   0  0  2  0  0  0  0  0  0  0  0  0
    3.8360    0.2530   -1.0130 O   0  0  0  0  0  0  0  0  0  0  0  0
    2.9230   -1.9440   -1.0180 C   0  0  1  0  0  0  0  0  0  0  0  0
    2.6450   -1.9920   -2.4980 C   0  0  0  0  0  0  0  0  0  0  0  0
    4.3290   -2.4490   -0.7960 C   0  0  0  0  0  0  0  0  0  0  0  0
    5.0870   -2.7330   -1.7500 O   0  0  0  0  0  0  0  0  0  0  0  0
    4.7980   -2.6030    0.5410 N   0  0  0  0  0  0  0  0  0  0  0  0
    6.1340   -3.0810    0.7720 C   0  0  0  0  0  0  0  0  0  0  0  0
    6.3760   -3.1600    2.2600 C   0  0  0  0  0  0  0  0  0  0  0  0
    7.7840   -3.6580    2.4840 C   0  0  2  0  0  0  0  0  0  0  0  0
    8.7350   -2.6730    1.8390 C   0  0  0  0  0  0  0  0  0  0  0  0
    7.9060   -4.8560    1.7590 O   0  0  0  0  0  0  0  0  0  0  0  0
    1.2900    1.3560   -0.2640 C   0  0  0  0  0  0  0  0  0  0  0  0
    2.4410    2.1170    0.2710 C   0  0  0  0  0  0  0  0  0  0  0  0
  1  2  1  0
  2  3  1  0
  3  4  2  0
  3  5  1  0
  5  6  1  0
  6  7  1  0
  7  8  2  0
  7  9  1  0
  9 10  2  0
  9 11  1  0
 11 12  1  0
 12 13  2  0
 12 40  1  0
 13 14  1  0
 14 15  1  0
 14 26  2  0
 15 16  1  0
 16 17  1  0
 17 18  1  0
 18 19  1  1
 18 20  1  0
 18 25  1  0
 20 21  2  0
 21 22  1  0
 22 23  1  0
 23 24  1  1
 23 25  1  0
 26 27  1  0
 27 28  1  0
 27 40  2  0
 28 29  1  6
 28 30  1  0
 30 31  1  6
 30 32  1  0
 32 33  2  0
 32 34  1  0
 34 35  1  0
 35 36  1  0
 36 37  1  0
 37 38  1  6
 37 39  1  0
 40 41  1  0
M  CHG  1  25   1
M  END
