
     RDKit          3D

 41 42  0  0  0  0  0  0  0  0999 V2000
   11.1300    0.1140   -1.2560 C   0  0  0  0  0  0  0  0  0  0  0  0
   10.1580   -1.0340   -1.4480 C   0  0  0  0  0  0  0  0  0  0  0  0
    8.7370   -0.6250   -1.2790 C   0  0  1  0  0  0  0  0  0  0  0  0
    7.9130   -1.7260   -1.4680 O   0  0  0  0  0  0  0  0  0  0  0  0
    8.4290    0.0640    0.0360 C   0  0  2  0  0  0  0  0  0  0  0  0
    8.5580   -0.9680    1.1280 C   0  0  0  0  0  0  0  0  0  0  0  0
    7.0230    0.4920   -0.0170 N   0  0  0  0  0  0  0  0  0  0  0  0
    6.6480    1.8560    0.0550 C   0  0  0  0  0  0  0  0  0  0  0  0
    7.4950    2.7560    0.1690 O   0  0  0  0  0  0  0  0  0  0  0  0
    5.2290    2.2120   -0.0110 C   0  0  0  0  0  0  0  0  0  0  0  0
    4.6890    3.4900   -0.0640 C   0  0  0  0  0  0  0  0  0  0  0  0
    3.2960    3.3640   -0.1180 C   0  0  0  0  0  0  0  0  0  0  0  0
    3.0530    2.0130   -0.0930 C   0  0  0  0  0  0  0  0  0  0  0  0
    1.7200    1.3410   -0.1300 C   0  0  0  0  0  0  0  0  0  0  0  0
    1.6830    0.0660   -0.1190 C   0  0  0  0  0  0  0  0  0  0  0  0
    0.5550   -0.8370   -0.1530 C   0  0  0  0  0  0  0  0  0  0  0  0
    0.7630   -2.1690   -0.1110 C   0  0  0  0  0  0  0  0  0  0  0  0
   -0.4000   -3.1110   -0.1480 C   0  0  0  0  0  0  0  0  0  0  0  0
   -1.4350   -2.5740    0.7900 C   0  0  2  0  0  0  0  0  0  0  0  0
   -2.5470   -3.5200    1.0780 C   0  0  0  0  0  0  0  0  0  0  0  0
   -3.4020   -3.9930   -0.0210 C   0  0  0  0  0  0  0  0  0  0  0  0
   -2.7320   -4.7430   -1.0400 N   0  0  0  0  0  0  0  0  0  0  0  0
   -1.8310   -1.2580    0.3690 N   0  0  0  0  0  0  0  0  0  0  0  0
   -3.1060   -0.6710    0.5900 C   0  0  0  0  0  0  0  0  0  0  0  0
   -3.9400   -1.2730    1.2990 O   0  0  0  0  0  0  0  0  0  0  0  0
   -3.4680    0.5530    0.0430 N   0  0  0  0  0  0  0  0  0  0  0  0
   -4.7070    1.2720    0.1890 C   0  0  2  0  0  0  0  0  0  0  0  0
   -5.3730    0.9670    1.5310 C   0  0  0  0  0  0  0  0  0  0  0  0
   -4.4610    1.3730    2.6720 C   0  0  0  0  0  0  0  0  0  0  0  0
   -5.0970    1.0580    4.0110 C   0  0  0  0  0  0  0  0  0  0  0  0
   -6.2800    1.7810    4.0540 O   0  0  0  0  0  0  0  0  0  0  0  0
   -5.5950    0.9630   -0.9230 C   0  0  0  0  0  0  0  0  0  0  0  0
   -5.2200    0.1260   -1.8000 O   0  0  0  0  0  0  0  0  0  0  0  0
   -6.8850    1.5360   -1.1110 N   0  0  0  0  0  0  0  0  0  0  0  0
   -7.7240    1.1670   -2.2420 C   0  0  2  0  0  0  0  0  0  0  0  0
   -7.9730    2.3210   -3.1930 C   0  0  0  0  0  0  0  0  0  0  0  0
   -9.0390    0.6700   -1.7060 C   0  0  0  0  0  0  0  0  0  0  0  0
   -0.8470   -0.3920   -0.2730 C   0  0  0  0  0  0  0  0  0  0  0  0
    0.6210    2.1620   -0.1700 O   0  0  0  0  0  0  0  0  0  0  0  0
    0.1910    2.9310    0.9490 C   0  0  0  0  0  0  0  0  0  0  0  0
    4.2090    1.4010   -0.0320 O   0  0  0  0  0  0  0  0  0  0  0  0
  1  2  1  0
  2  3  1  0
  3  4  1  1
  3  5  1  0
  5  6  1  1
  5  7  1  0
  7  8  1  0
  8  9  2  0
  8 10  1  0
 10 11  2  0
 10 41  1  0
 11 12  1  0
 12 13  2  0
 13 14  1  0
 13 41  1  0
 14 15  2  3
 14 39  1  0
 15 16  1  0
 16 17  2  0
 16 38  1  0
 17 18  1  0
 18 19  1  0
 19 20  1  6
 19 23  1  0
 20 21  1  0
 21 22  1  0
 23 24  1  0
 23 38  1  0
 24 25  2  0
 24 26  1  0
 26 27  1  0
 27 28  1  1
 27 32  1  0
 28 29  1  0
 29 30  1  0
 30 31  1  0
 32 33  2  0
 32 34  1  0
 34 35  1  0
 35 36  1  6
 35 37  1  0
 39 40  1  0
M  CHG  1  22   1
M  END
