
     RDKit          3D

 41 43  0  0  0  0  0  0  0  0999 V2000
   -4.4190    0.2180    1.6660 C   0  0  0  0  0  0  0  0  0  0  0  0
   -4.6390    0.3110    0.1580 C   0  0  0  0  0  0  0  0  0  0  0  0
   -3.9210   -0.6850   -0.6500 C   0  0  2  0  0  0  0  0  0  0  0  0
   -4.1360   -0.4620   -2.1250 C   0  0  0  0  0  0  0  0  0  0  0  0
   -5.5250   -0.5330   -2.6370 C   0  0  0  0  0  0  0  0  0  0  0  0
   -6.3750    0.4050   -2.1040 O   0  0  0  0  0  0  0  0  0  0  0  0
   -4.2950   -2.1380   -0.4090 C   0  0  0  0  0  0  0  0  0  0  0  0
   -4.0990   -2.6970    0.9260 C   0  0  0  0  0  0  0  0  0  0  0  0
   -4.4400   -4.0720    0.9260 O   0  0  0  0  0  0  0  0  0  0  0  0
   -5.7340   -4.3070    0.5670 C   0  0  0  0  0  0  0  0  0  0  0  0
   -6.7710   -3.6370    1.4430 C   0  0  0  0  0  0  0  0  0  0  0  0
   -8.0380   -3.9900    0.9310 O   0  0  0  0  0  0  0  0  0  0  0  0
   -8.9990   -3.4150    1.6810 N   0  0  0  0  0  0  0  0  0  0  0  0
   -2.4850   -0.5360   -0.3920 N   0  0  0  0  0  0  0  0  0  0  0  0
   -1.7630    0.6380   -0.6070 C   0  0  0  0  0  0  0  0  0  0  0  0
   -2.2850    1.6760   -1.0390 O   0  0  0  0  0  0  0  0  0  0  0  0
   -0.3110    0.6370   -0.3050 C   0  0  0  0  0  0  0  0  0  0  0  0
    0.4810    1.6750   -0.4550 C   0  0  0  0  0  0  0  0  0  0  0  0
    1.8130    1.2670   -0.0600 C   0  0  0  0  0  0  0  0  0  0  0  0
    2.6840    2.2250   -0.2170 C   0  0  0  0  0  0  0  0  0  0  0  0
    2.0610    3.4480   -0.7590 C   0  0  0  0  0  0  0  0  0  0  0  0
    0.5790    3.1060   -0.8300 C   0  0  2  0  0  0  0  0  0  0  0  0
   -0.1710    3.9640    0.1900 C   0  0  0  0  0  0  0  0  0  0  0  0
   -0.0560    5.3300   -0.2160 N   0  0  0  0  0  0  0  0  0  0  0  0
   -0.1200    6.2590    0.8970 C   0  0  1  0  0  0  0  0  0  0  0  0
    1.1290    6.2340    1.7370 C   0  0  0  0  0  0  0  0  0  0  0  0
   -0.2870    7.6550    0.3340 C   0  0  0  0  0  0  0  0  0  0  0  0
    1.7120   -0.1250    0.3440 C   0  0  0  0  0  0  0  0  0  0  0  0
    2.7830   -0.9680    0.8200 N   0  0  0  0  0  0  0  0  0  0  0  0
    3.8740   -1.1550   -0.0760 C   0  0  0  0  0  0  0  0  0  0  0  0
    3.8910   -0.6130   -1.2240 O   0  0  0  0  0  0  0  0  0  0  0  0
    4.9540   -1.9700    0.3440 N   0  0  0  0  0  0  0  0  0  0  0  0
    6.0740   -2.1740   -0.5490 C   0  0  2  0  0  0  0  0  0  0  0  0
    6.2190   -3.6410   -0.7930 C   0  0  0  0  0  0  0  0  0  0  0  0
    7.3140   -4.2770    0.0270 C   0  0  0  0  0  0  0  0  0  0  0  0
    8.6290   -3.7420   -0.4430 C   0  0  1  0  0  0  0  0  0  0  0  0
    8.9960   -4.4490   -1.5880 O   0  0  0  0  0  0  0  0  0  0  0  0
    8.5020   -2.2650   -0.7380 C   0  0  0  0  0  0  0  0  0  0  0  0
    7.3630   -1.6330    0.0290 C   0  0  2  0  0  0  0  0  0  0  0  0
    7.4610   -1.7900    1.3900 O   0  0  0  0  0  0  0  0  0  0  0  0
    0.4650   -0.4790    0.1950 C   0  0  0  0  0  0  0  0  0  0  0  0
  1  2  1  0
  3  2  1  1
  3  4  1  0
  3  7  1  0
  3 14  1  0
  4  5  1  0
  5  6  1  0
  7  8  1  0
  8  9  1  0
  9 10  1  0
 10 11  1  0
 11 12  1  0
 12 13  1  0
 14 15  1  0
 15 16  2  0
 15 17  1  0
 17 18  2  0
 17 41  1  0
 18 19  1  0
 18 22  1  0
 19 20  2  0
 19 28  1  0
 20 21  1  0
 21 22  1  0
 22 23  1  1
 23 24  1  0
 24 25  1  0
 25 26  1  6
 25 27  1  0
 28 29  1  0
 28 41  2  0
 29 30  1  0
 30 31  2  0
 30 32  1  0
 33 32  1  1
 33 34  1  0
 33 39  1  0
 34 35  1  0
 35 36  1  0
 36 37  1  6
 36 38  1  0
 38 39  1  0
 39 40  1  1
M  CHG  1  24   1
M  END
