
     RDKit          3D

 41 45  0  0  0  0  0  0  0  0999 V2000
    5.2890    3.5220   -2.0090 C   0  0  0  0  0  0  0  0  0  0  0  0
    5.5360    2.2270   -1.3170 C   0  0  2  0  0  0  0  0  0  0  0  0
    6.4810    1.3800   -2.2060 C   0  0  0  0  0  0  0  0  0  0  0  0
    4.2240    1.5080   -1.1480 C   0  0  0  0  0  0  0  0  0  0  0  0
    3.1790    1.9770   -1.9270 C   0  0  0  0  0  0  0  0  0  0  0  0
    1.9960    1.3190   -1.6520 C   0  0  0  0  0  0  0  0  0  0  0  0
    1.8720    0.3220   -0.7150 C   0  0  0  0  0  0  0  0  0  0  0  0
    0.5330   -0.2200   -0.4120 C   0  0  0  0  0  0  0  0  0  0  0  0
    0.4020   -1.2560    0.2700 O   0  0  0  0  0  0  0  0  0  0  0  0
   -0.6670    0.4280   -0.8850 N   0  0  0  0  0  0  0  0  0  0  0  0
   -1.8860   -0.2270   -0.5600 C   0  0  0  0  0  0  0  0  0  0  0  0
   -2.7640    0.2870    0.3830 C   0  0  0  0  0  0  0  0  0  0  0  0
   -3.9200   -0.3330    0.7220 C   0  0  0  0  0  0  0  0  0  0  0  0
   -4.8810    0.2350    1.6870 C   0  0  0  0  0  0  0  0  0  0  0  0
   -6.1550    0.2350    1.0620 N   0  0  2  0  0  0  0  0  0  0  0  0
   -6.8380    1.5240    1.0240 C   0  0  0  0  0  0  0  0  0  0  0  0
   -7.9530    1.4480    0.0150 C   0  0  0  0  0  0  0  0  0  0  0  0
   -8.8320    0.2910    0.2170 N   0  0  1  0  0  0  0  0  0  0  0  0
   -9.4340    0.0630   -1.1190 C   0  0  0  0  0  0  0  0  0  0  0  0
   -8.1540   -0.9190    0.5780 C   0  0  0  0  0  0  0  0  0  0  0  0
   -7.1210   -0.6840    1.6480 C   0  0  0  0  0  0  0  0  0  0  0  0
   -4.2290   -1.5260    0.0860 C   0  0  0  0  0  0  0  0  0  0  0  0
   -3.3830   -2.0800   -0.8690 C   0  0  0  0  0  0  0  0  0  0  0  0
   -3.7250   -3.3240   -1.5970 C   0  0  2  0  0  0  0  0  0  0  0  0
   -4.7600   -3.9770   -0.9940 F   0  0  0  0  0  0  0  0  0  0  0  0
   -2.5920   -4.1210   -1.6900 F   0  0  0  0  0  0  0  0  0  0  0  0
   -4.1090   -2.9950   -2.8930 F   0  0  0  0  0  0  0  0  0  0  0  0
   -2.1820   -1.4220   -1.2000 C   0  0  0  0  0  0  0  0  0  0  0  0
    2.9420   -0.1100    0.0340 C   0  0  0  0  0  0  0  0  0  0  0  0
    4.2170    0.5510   -0.2120 C   0  0  0  0  0  0  0  0  0  0  0  0
    5.2910    0.2380    0.4850 C   0  0  0  0  0  0  0  0  0  0  0  0
    6.4410   -0.0710    1.2310 C   0  0  0  0  0  0  0  0  0  0  0  0
    7.5410   -0.3530    1.9310 C   0  0  0  0  0  0  0  0  0  0  0  0
    7.9690   -0.1370    3.2790 C   0  0  0  0  0  0  0  0  0  0  0  0
    9.1240   -0.8010    3.4120 N   0  0  0  0  0  0  0  0  0  0  0  0
    9.5140   -1.4030    2.3060 C   0  0  0  0  0  0  0  0  0  0  0  0
   10.6210   -2.1650    1.9610 C   0  0  0  0  0  0  0  0  0  0  0  0
   10.7850   -2.6540    0.6880 N   0  0  0  0  0  0  0  0  0  0  0  0
    9.8390   -2.3790   -0.2410 C   0  0  0  0  0  0  0  0  0  0  0  0
    8.7800   -1.6270    0.1780 C   0  0  0  0  0  0  0  0  0  0  0  0
    8.5850   -1.1380    1.4090 N   0  0  0  0  0  0  0  0  0  0  0  0
  2  1  1  6
  2  3  1  0
  2  4  1  0
  4  5  2  0
  4 30  1  0
  5  6  1  0
  6  7  2  0
  7  8  1  0
  7 29  1  0
  8  9  2  0
  8 10  1  0
 10 11  1  0
 11 12  2  0
 11 28  1  0
 12 13  1  0
 13 14  1  0
 13 22  2  0
 15 14  1  1
 15 16  1  0
 15 21  1  0
 16 17  1  0
 17 18  1  0
 18 19  1  6
 18 20  1  0
 20 21  1  0
 22 23  1  0
 23 24  1  0
 23 28  2  0
 24 25  1  1
 24 26  1  0
 24 27  1  0
 29 30  2  0
 30 31  1  0
 31 32  3  0
 32 33  1  0
 33 34  2  0
 33 41  1  0
 34 35  1  0
 35 36  2  0
 36 37  1  0
 36 41  1  0
 37 38  2  0
 38 39  1  0
 39 40  2  0
 40 41  1  0
M  CHG  2  15   1  18   1
M  END
