
     RDKit          3D

 24 26  0  0  0  0  0  0  0  0999 V2000
    5.5100    0.6730    0.5460 C   0  0  0  0  0  0  0  0  0  0  0  0
    5.9480   -0.7310    0.4580 C   0  0  0  0  0  0  0  0  0  0  0  0
    5.2180   -1.7900    0.5710 C   0  0  0  0  0  0  0  0  0  0  0  0
    3.8190   -2.0010    0.8060 C   0  0  0  0  0  0  0  0  0  0  0  0
    3.3200   -3.2890    0.9380 N   0  0  0  0  0  0  0  0  0  0  0  0
    2.0430   -3.2770    1.1440 N   0  0  0  0  0  0  0  0  0  0  0  0
    1.6500   -1.9970    1.1570 C   0  0  0  0  0  0  0  0  0  0  0  0
    2.7350   -1.2380    0.9500 N   0  0  0  0  0  0  0  0  0  0  0  0
    2.3430    0.1500    0.9420 C   0  0  0  0  0  0  0  0  0  0  0  0
    0.8790    0.1490    0.8650 N   0  0  0  0  0  0  0  0  0  0  0  0
    0.4580    0.4430   -0.4600 C   0  0  0  0  0  0  0  0  0  0  0  0
   -0.9670    0.6540   -0.6950 C   0  0  0  0  0  0  0  0  0  0  0  0
   -1.3770    1.8470   -1.1780 C   0  0  0  0  0  0  0  0  0  0  0  0
   -2.8070    2.1100   -1.4320 C   0  0  0  0  0  0  0  0  0  0  0  0
   -0.3930    2.9160   -1.4620 C   0  0  0  0  0  0  0  0  0  0  0  0
   -2.0110   -0.2780   -0.4850 N   0  0  0  0  0  0  0  0  0  0  0  0
   -2.3040   -1.3510   -1.2770 C   0  0  0  0  0  0  0  0  0  0  0  0
   -1.5590   -1.7390   -2.5080 C   0  0  0  0  0  0  0  0  0  0  0  0
   -3.3950   -2.0000   -0.7420 C   0  0  0  0  0  0  0  0  0  0  0  0
   -3.7880   -1.3370    0.3840 C   0  0  0  0  0  0  0  0  0  0  0  0
   -2.9000   -0.2640    0.5150 C   0  0  0  0  0  0  0  0  0  0  0  0
   -3.0360    0.6880    1.6520 C   0  0  0  0  0  0  0  0  0  0  0  0
   -4.3170    1.3160    1.5580 N   0  0  0  0  0  0  0  0  0  0  0  0
    0.4470   -1.1070    1.3270 C   0  0  0  0  0  0  0  0  0  0  0  0
  1  2  1  0
  2  3  2  3
  3  4  1  0
  4  5  2  0
  4  8  1  0
  5  6  1  0
  6  7  2  0
  7  8  1  0
  7 24  1  0
  8  9  1  0
  9 10  1  0
 10 11  1  0
 10 24  1  0
 11 12  1  0
 12 13  2  3
 12 16  1  0
 13 14  1  0
 13 15  1  0
 16 17  1  0
 16 21  1  0
 17 18  1  0
 17 19  2  0
 19 20  1  0
 20 21  2  0
 21 22  1  0
 22 23  1  0
M  CHG  1  23   1
M  END
