
     RDKit          3D

 25 27  0  0  0  0  0  0  0  0999 V2000
    5.3830    1.9250    0.5790 C   0  0  0  0  0  0  0  0  0  0  0  0
    4.2540    2.0810   -0.3840 C   0  0  0  0  0  0  0  0  0  0  0  0
    3.9610    0.8540   -1.1760 C   0  0  0  0  0  0  0  0  0  0  0  0
    3.5670   -0.2730   -0.4010 N   0  0  0  0  0  0  0  0  0  0  0  0
    2.2040   -0.7860   -0.4240 C   0  0  0  0  0  0  0  0  0  0  0  0
    1.0470   -0.0780   -0.8230 N   0  0  0  0  0  0  0  0  0  0  0  0
   -0.2000   -0.2010   -0.1100 C   0  0  0  0  0  0  0  0  0  0  0  0
   -0.2640   -0.7530    1.1480 C   0  0  0  0  0  0  0  0  0  0  0  0
   -1.4770   -0.8810    1.8180 C   0  0  0  0  0  0  0  0  0  0  0  0
   -2.6250   -0.4310    1.1720 C   0  0  0  0  0  0  0  0  0  0  0  0
   -2.6130    0.1280   -0.0820 C   0  0  0  0  0  0  0  0  0  0  0  0
   -3.7860    0.5910   -0.7280 N   0  0  0  0  0  0  0  0  0  0  0  0
   -5.0650    0.6600   -0.1440 C   0  0  0  0  0  0  0  0  0  0  0  0
   -5.1200    1.0680    1.0920 N   0  0  0  0  0  0  0  0  0  0  0  0
   -6.3740    1.1610    1.7350 C   0  0  0  0  0  0  0  0  0  0  0  0
   -7.5210    0.8570    1.1580 C   0  0  0  0  0  0  0  0  0  0  0  0
   -7.5260    0.4070   -0.1900 N   0  0  0  0  0  0  0  0  0  0  0  0
   -6.2770    0.2980   -0.8760 C   0  0  0  0  0  0  0  0  0  0  0  0
   -6.2510   -0.1280   -2.1040 C   0  0  0  0  0  0  0  0  0  0  0  0
   -5.1290   -0.2800   -2.8120 F   0  0  0  0  0  0  0  0  0  0  0  0
   -1.3740    0.2240   -0.6890 C   0  0  0  0  0  0  0  0  0  0  0  0
    2.1880   -2.0120   -0.0390 N   0  0  0  0  0  0  0  0  0  0  0  0
    3.5200   -2.4650    0.2840 C   0  0  0  0  0  0  0  0  0  0  0  0
    4.2540   -1.1370    0.5170 C   0  0  1  0  0  0  0  0  0  0  0  0
    5.7190   -1.3130    0.2190 C   0  0  0  0  0  0  0  0  0  0  0  0
  1  2  1  0
  2  3  1  0
  3  4  1  0
  4  5  1  0
  4 24  1  0
  5  6  1  0
  5 22  2  0
  6  7  1  0
  7  8  2  0
  7 21  1  0
  8  9  1  0
  9 10  2  0
 10 11  1  0
 11 12  1  0
 11 21  2  0
 12 13  1  0
 13 14  2  0
 13 18  1  0
 14 15  1  0
 15 16  2  0
 16 17  1  0
 17 18  1  0
 18 19  2  3
 19 20  1  0
 22 23  1  0
 23 24  1  0
 24 25  1  6
M  CHG  1  22   1
M  END
