
     RDKit          3D

 25 27  0  0  0  0  0  0  0  0999 V2000
   -0.9840   -0.6510   -1.7630 C   0  0  0  0  0  0  0  0  0  0  0  0
   -0.4720    0.0750   -0.5060 C   0  0  1  0  0  0  0  0  0  0  0  0
    0.7060    0.8010   -1.0200 C   0  0  0  0  0  0  0  0  0  0  0  0
    1.9190    0.3350   -0.8920 C   0  0  0  0  0  0  0  0  0  0  0  0
    2.0900   -0.9420   -0.2190 C   0  0  0  0  0  0  0  0  0  0  0  0
    2.9420   -1.5010    0.6250 C   0  0  0  0  0  0  0  0  0  0  0  0
    4.1720   -1.0290    1.2920 C   0  0  0  0  0  0  0  0  0  0  0  0
    5.3020   -0.7120    0.3750 C   0  0  0  0  0  0  0  0  0  0  0  0
    4.8440   -0.1320   -0.9380 C   0  0  0  0  0  0  0  0  0  0  0  0
    4.2130    1.1340   -0.7440 N   0  0  0  0  0  0  0  0  0  0  0  0
    2.9850    1.2380   -1.4770 C   0  0  0  0  0  0  0  0  0  0  0  0
   -1.4990    0.9330    0.0530 N   0  0  0  0  0  0  0  0  0  0  0  0
   -2.7900    0.6710    0.0650 C   0  0  0  0  0  0  0  0  0  0  0  0
   -3.5830   -0.4620   -0.3930 C   0  0  0  0  0  0  0  0  0  0  0  0
   -3.4010   -1.6740    0.3730 N   0  0  0  0  0  0  0  0  0  0  0  0
   -4.2780   -2.6800   -0.2460 C   0  0  0  0  0  0  0  0  0  0  0  0
   -4.1390   -3.9350    0.4860 N   0  0  0  0  0  0  0  0  0  0  0  0
   -3.4110    1.7300    0.6770 N   0  0  0  0  0  0  0  0  0  0  0  0
   -2.4810    2.6240    1.0320 C   0  0  0  0  0  0  0  0  0  0  0  0
   -2.5760    3.8450    1.6810 C   0  0  0  0  0  0  0  0  0  0  0  0
   -3.7870    4.2910    2.0420 F   0  0  0  0  0  0  0  0  0  0  0  0
   -1.4190    4.5380    1.9200 C   0  0  0  0  0  0  0  0  0  0  0  0
   -0.2150    4.0620    1.5440 N   0  0  0  0  0  0  0  0  0  0  0  0
   -0.0890    2.8730    0.9090 C   0  0  0  0  0  0  0  0  0  0  0  0
   -1.2190    2.1450    0.6470 C   0  0  0  0  0  0  0  0  0  0  0  0
  2  1  1  6
  2  3  1  0
  2 12  1  0
  3  4  2  3
  4  5  1  0
  4 11  1  0
  5  6  2  0
  6  7  1  0
  7  8  1  0
  8  9  1  0
  9 10  1  0
 10 11  1  0
 12 13  1  0
 12 25  1  0
 13 14  1  0
 13 18  2  0
 14 15  1  0
 15 16  1  0
 16 17  1  0
 18 19  1  0
 19 20  2  0
 19 25  1  0
 20 21  1  0
 20 22  1  0
 22 23  2  0
 23 24  1  0
 24 25  2  0
M  CHG  1  17   1
M  END
