
     RDKit          3D

 25 28  0  0  0  0  0  0  0  0999 V2000
    6.1840   -1.2540   -1.2230 C   0  0  0  0  0  0  0  0  0  0  0  0
    4.9540   -1.9050   -0.8160 N   0  0  0  0  0  0  0  0  0  0  0  0
    4.8220   -3.1780   -0.4790 N   0  0  0  0  0  0  0  0  0  0  0  0
    3.5160   -3.4330   -0.1520 C   0  0  0  0  0  0  0  0  0  0  0  0
    2.8050   -2.2700   -0.2910 C   0  0  0  0  0  0  0  0  0  0  0  0
    1.3890   -2.0210   -0.0790 C   0  0  0  0  0  0  0  0  0  0  0  0
    0.8560   -0.7860   -0.3030 N   0  0  0  0  0  0  0  0  0  0  0  0
   -0.4370   -0.4860   -0.1290 C   0  0  0  0  0  0  0  0  0  0  0  0
   -0.9570    0.8170   -0.3730 N   0  0  0  0  0  0  0  0  0  0  0  0
   -2.3340    1.1660   -0.1960 C   0  0  1  0  0  0  0  0  0  0  0  0
   -3.2030    0.3170   -1.1140 C   0  0  0  0  0  0  0  0  0  0  0  0
   -4.5900    0.9750   -1.0760 C   0  0  0  0  0  0  0  0  0  0  0  0
   -5.0930    0.7510    0.3540 C   0  0  2  0  0  0  0  0  0  0  0  0
   -6.4600    1.2070    0.3880 N   0  0  0  0  0  0  0  0  0  0  0  0
   -4.2210    1.5210    1.3000 C   0  0  0  0  0  0  0  0  0  0  0  0
   -2.8150    0.9230    1.2370 C   0  0  0  0  0  0  0  0  0  0  0  0
   -1.2570   -1.4650    0.2930 N   0  0  0  0  0  0  0  0  0  0  0  0
   -0.8550   -2.7170    0.5470 C   0  0  0  0  0  0  0  0  0  0  0  0
    0.5110   -2.9840    0.3500 C   0  0  0  0  0  0  0  0  0  0  0  0
    0.9770   -4.2280    0.5900 F   0  0  0  0  0  0  0  0  0  0  0  0
    3.7300   -1.3290   -0.7070 C   0  0  0  0  0  0  0  0  0  0  0  0
    3.4670    0.0840   -0.9810 C   0  0  0  0  0  0  0  0  0  0  0  0
    3.3470    0.9490    0.2400 C   0  0  2  0  0  0  0  0  0  0  0  0
    3.0690    2.4070   -0.0520 C   0  0  0  0  0  0  0  0  0  0  0  0
    4.4180    1.9850    0.4550 C   0  0  0  0  0  0  0  0  0  0  0  0
  1  2  1  0
  2  3  1  0
  2 21  1  0
  3  4  2  0
  4  5  1  0
  5  6  1  0
  5 21  2  0
  6  7  2  0
  6 19  1  0
  7  8  1  0
  8  9  1  0
  8 17  2  0
 10  9  1  1
 10 11  1  0
 10 16  1  0
 11 12  1  0
 12 13  1  0
 13 14  1  6
 13 15  1  0
 15 16  1  0
 17 18  1  0
 18 19  2  0
 19 20  1  0
 21 22  1  0
 23 22  1  6
 23 24  1  0
 23 25  1  0
 24 25  1  0
M  CHG  1  14   1
M  END
