
     RDKit          3D

 25 27  0  0  0  0  0  0  0  0999 V2000
   -5.5360    1.5700   -1.9850 C   0  0  0  0  0  0  0  0  0  0  0  0
   -4.2570    1.0090   -1.6250 C   0  0  0  0  0  0  0  0  0  0  0  0
   -3.7030    0.2660   -0.7380 C   0  0  0  0  0  0  0  0  0  0  0  0
   -2.3230    0.0390   -0.9030 N   0  0  0  0  0  0  0  0  0  0  0  0
   -1.6180   -0.7090   -0.0650 C   0  0  0  0  0  0  0  0  0  0  0  0
   -0.2070   -0.9390   -0.2650 N   0  0  0  0  0  0  0  0  0  0  0  0
    0.5000   -0.3470   -1.3680 C   0  0  0  0  0  0  0  0  0  0  0  0
    0.4890    1.1650   -1.3120 C   0  0  0  0  0  0  0  0  0  0  0  0
    1.1570    1.6620   -0.0420 C   0  0  0  0  0  0  0  0  0  0  0  0
    2.5010    1.2890    0.1070 N   0  0  0  0  0  0  0  0  0  0  0  0
    3.4590    1.8340   -0.7590 C   0  0  0  0  0  0  0  0  0  0  0  0
    4.8860    1.4750   -0.4490 C   0  0  0  0  0  0  0  0  0  0  0  0
    5.0630    0.1030    0.0630 C   0  0  0  0  0  0  0  0  0  0  0  0
    6.0410   -0.8000   -0.0750 N   0  0  0  0  0  0  0  0  0  0  0  0
    5.6420   -1.8800    0.6280 C   0  0  0  0  0  0  0  0  0  0  0  0
    4.4200   -1.6370    1.1960 N   0  0  0  0  0  0  0  0  0  0  0  0
    4.0580   -0.4120    0.8490 C   0  0  0  0  0  0  0  0  0  0  0  0
    2.8820    0.4100    1.1320 C   0  0  0  0  0  0  0  0  0  0  0  0
   -2.1980   -1.3130    1.0250 C   0  0  0  0  0  0  0  0  0  0  0  0
   -1.4060   -2.1380    1.9470 C   0  0  0  0  0  0  0  0  0  0  0  0
   -3.5290   -1.1310    1.2380 C   0  0  0  0  0  0  0  0  0  0  0  0
   -4.1370   -1.7440    2.3520 N   0  0  0  0  0  0  0  0  0  0  0  0
   -4.2920   -0.3210    0.3300 C   0  0  0  0  0  0  0  0  0  0  0  0
   -5.5570   -0.2330    0.6450 C   0  0  0  0  0  0  0  0  0  0  0  0
   -6.5180    0.4100    0.0400 F   0  0  0  0  0  0  0  0  0  0  0  0
  1  2  1  0
  2  3  2  3
  3  4  1  0
  3 23  1  0
  4  5  2  0
  5  6  1  0
  5 19  1  0
  6  7  1  0
  7  8  1  0
  8  9  1  0
  9 10  1  0
 10 11  1  0
 10 18  1  0
 11 12  1  0
 12 13  1  0
 13 14  1  0
 13 17  2  0
 14 15  1  0
 15 16  2  0
 16 17  1  0
 17 18  1  0
 19 20  1  0
 19 21  2  0
 21 22  1  0
 21 23  1  0
 23 24  2  3
 24 25  1  0
M  CHG  1  16   1
M  END
