
     RDKit          3D

 25 28  0  0  0  0  0  0  0  0999 V2000
    7.3660    0.9640    0.2610 C   0  0  0  0  0  0  0  0  0  0  0  0
    6.2460    0.4400   -0.5790 C   0  0  0  0  0  0  0  0  0  0  0  0
    4.9620    0.3080   -0.0690 C   0  0  0  0  0  0  0  0  0  0  0  0
    3.9160   -0.1750   -0.8350 C   0  0  0  0  0  0  0  0  0  0  0  0
    2.5970   -0.3900   -0.5580 C   0  0  0  0  0  0  0  0  0  0  0  0
    1.8320   -0.1780    0.6630 C   0  0  0  0  0  0  0  0  0  0  0  0
    0.4810   -0.4570    0.7600 N   0  0  0  0  0  0  0  0  0  0  0  0
    0.0410   -0.1710    1.9800 C   0  0  0  0  0  0  0  0  0  0  0  0
   -1.3350   -0.3060    2.5470 C   0  0  0  0  0  0  0  0  0  0  0  0
   -2.2590   -0.8370    1.5410 N   0  0  0  0  0  0  0  0  0  0  0  0
   -2.7010    0.2180    0.6470 C   0  0  1  0  0  0  0  0  0  0  0  0
   -2.9920   -0.3700   -0.7090 C   0  0  0  0  0  0  0  0  0  0  0  0
   -4.2360   -1.2240   -0.5370 C   0  0  0  0  0  0  0  0  0  0  0  0
   -5.3690   -0.2560   -0.2810 C   0  0  2  0  0  0  0  0  0  0  0  0
   -5.5110    0.6020   -1.5280 C   0  0  0  0  0  0  0  0  0  0  0  0
   -5.1750    0.5610    0.9540 C   0  0  0  0  0  0  0  0  0  0  0  0
   -3.7970    1.0510    1.1910 C   0  0  0  0  0  0  0  0  0  0  0  0
    1.0730    0.2870    2.6760 N   0  0  0  0  0  0  0  0  0  0  0  0
    2.1390    0.2710    1.8570 N   0  0  0  0  0  0  0  0  0  0  0  0
    2.0700   -0.8790   -1.7190 N   0  0  0  0  0  0  0  0  0  0  0  0
    2.9680   -0.9720   -2.6600 N   0  0  0  0  0  0  0  0  0  0  0  0
    4.1370   -0.5470   -2.1670 C   0  0  0  0  0  0  0  0  0  0  0  0
    5.4100   -0.4140   -2.6660 C   0  0  0  0  0  0  0  0  0  0  0  0
    6.4410    0.0690   -1.8900 C   0  0  0  0  0  0  0  0  0  0  0  0
    7.6910    0.1980   -2.3880 F   0  0  0  0  0  0  0  0  0  0  0  0
  1  2  1  0
  2  3  2  0
  2 24  1  0
  3  4  1  0
  4  5  1  0
  4 22  2  0
  5  6  1  0
  5 20  2  0
  6  7  2  0
  6 19  1  0
  7  8  1  0
  8  9  1  0
  8 18  2  0
  9 10  1  0
 11 10  1  1
 11 12  1  0
 11 17  1  0
 12 13  1  0
 13 14  1  0
 14 15  1  6
 14 16  1  0
 16 17  1  0
 18 19  1  0
 20 21  1  0
 21 22  1  0
 22 23  1  0
 23 24  2  0
 24 25  1  0
M  CHG  1  10   1
M  END
