
     RDKit          3D

  7  6  0  0  0  0  0  0  0  0999 V2000
   -1.5730   -1.7310   -0.0230 C   0  0  0  0  0  0  0  0  0  0  0  0
   -1.5250   -0.6410   -0.7830 C   0  0  0  0  0  0  0  0  0  0  0  0
   -0.6360    0.3800   -0.3050 N   0  0  0  0  0  0  0  0  0  0  0  0
   -1.1710    1.2980    0.6650 C   0  0  0  0  0  0  0  0  0  0  0  0
    0.7190    0.4210   -0.7670 C   0  0  0  0  0  0  0  0  0  0  0  0
    1.7060   -0.0680    0.3120 C   0  0  0  0  0  0  0  0  0  0  0  0
    2.9680    0.0420   -0.2840 O   0  0  0  0  0  0  0  0  0  0  0  0
  1  2  2  0
  2  3  1  0
  3  4  1  0
  3  5  1  0
  5  6  1  0
  6  7  1  0
M  END
