
     RDKit          3D

 24 27  0  0  0  0  0  0  0  0999 V2000
   -5.3440    1.3700    1.9150 C   0  0  0  0  0  0  0  0  0  0  0  0
   -4.1780    0.7580    1.3420 N   0  0  0  0  0  0  0  0  0  0  0  0
   -3.4240   -0.2270    2.0970 C   0  0  0  0  0  0  0  0  0  0  0  0
   -1.9750   -0.0960    1.6900 C   0  0  0  0  0  0  0  0  0  0  0  0
   -1.5960   -0.9810    0.5380 C   0  0  2  0  0  0  0  0  0  0  0  0
   -0.1430   -0.8440    0.3210 N   0  0  0  0  0  0  0  0  0  0  0  0
    0.5550   -1.7250   -0.5350 C   0  0  0  0  0  0  0  0  0  0  0  0
   -0.1340   -2.8320   -1.0450 C   0  0  0  0  0  0  0  0  0  0  0  0
    0.5550   -3.7070   -1.8610 C   0  0  0  0  0  0  0  0  0  0  0  0
    1.8800   -3.5270   -2.1830 C   0  0  0  0  0  0  0  0  0  0  0  0
    2.5310   -2.4250   -1.6630 C   0  0  0  0  0  0  0  0  0  0  0  0
    1.8740   -1.5080   -0.8300 C   0  0  0  0  0  0  0  0  0  0  0  0
    2.5560   -0.3830   -0.3090 N   0  0  0  0  0  0  0  0  0  0  0  0
    3.9520   -0.2270   -0.6650 C   0  0  0  0  0  0  0  0  0  0  0  0
    4.5970    0.9990   -0.1080 C   0  0  2  0  0  0  0  0  0  0  0  0
    4.6030    1.1220    1.3830 C   0  0  0  0  0  0  0  0  0  0  0  0
    4.1650    2.5590    1.2460 C   0  0  0  0  0  0  0  0  0  0  0  0
    3.8140    2.2830   -0.1990 C   0  0  0  0  0  0  0  0  0  0  0  0
   -2.3600   -0.7720   -0.7170 C   0  0  0  0  0  0  0  0  0  0  0  0
   -3.0290    0.5360   -0.8900 C   0  0  0  0  0  0  0  0  0  0  0  0
   -2.9770    1.3110   -2.0010 N   0  0  0  0  0  0  0  0  0  0  0  0
   -3.7180    2.3770   -1.7650 N   0  0  0  0  0  0  0  0  0  0  0  0
   -4.2490    2.3420   -0.5660 N   0  0  0  0  0  0  0  0  0  0  0  0
   -3.8310    1.1820    0.0200 C   0  0  0  0  0  0  0  0  0  0  0  0
  1  2  1  0
  2  3  1  0
  2 24  1  0
  3  4  1  0
  4  5  1  0
  5  6  1  6
  5 19  1  0
  6  7  1  0
  7  8  2  0
  7 12  1  0
  8  9  1  0
  9 10  2  0
 10 11  1  0
 11 12  2  0
 12 13  1  0
 13 14  1  0
 15 14  1  1
 15 16  1  0
 15 18  1  0
 16 17  1  0
 17 18  1  0
 19 20  1  0
 20 21  2  0
 20 24  1  0
 21 22  1  0
 22 23  1  0
 23 24  2  0
M  CHG  1  21   1
M  END
