
     RDKit          3D

 18 19  0  0  0  0  0  0  0  0999 V2000
    0.8470    1.4920    1.1020 O   0  0  0  0  0  0  0  0  0  0  0  0
    1.8080    0.7250    1.0140 C   0  0  0  0  0  0  0  0  0  0  0  0
    3.0860    1.0570    1.6040 N   0  0  0  0  0  0  0  0  0  0  0  0
    4.3260    0.6300    1.0350 C   0  0  0  0  0  0  0  0  0  0  0  0
    4.2650   -0.7160    0.3980 C   0  0  0  0  0  0  0  0  0  0  0  0
    2.9580   -1.3050    0.3280 N   0  0  0  0  0  0  0  0  0  0  0  0
    1.7300   -0.5450    0.3250 C   0  0  0  0  0  0  0  0  0  0  0  0
    0.6920   -1.0400   -0.2800 C   0  0  0  0  0  0  0  0  0  0  0  0
   -0.6270   -0.4610   -0.4180 C   0  0  0  0  0  0  0  0  0  0  0  0
   -1.6140   -1.0760   -1.0680 C   0  0  0  0  0  0  0  0  0  0  0  0
   -2.8470   -0.2220   -1.0340 C   0  0  0  0  0  0  0  0  0  0  0  0
   -3.9660   -0.5790   -1.5960 C   0  0  0  0  0  0  0  0  0  0  0  0
   -5.2350    0.0620   -1.6850 C   0  0  0  0  0  0  0  0  0  0  0  0
   -5.5000    1.7590   -0.8850 Br  0  0  0  0  0  0  0  0  0  0  0  0
   -2.4450    0.9380   -0.2940 C   0  0  0  0  0  0  0  0  0  0  0  0
   -3.0880    1.9760    0.0330 N   0  0  0  0  0  0  0  0  0  0  0  0
   -2.3840    3.4030    1.0140 Br  0  0  0  0  0  0  0  0  0  0  0  0
   -1.1040    0.7300    0.0450 O   0  0  0  0  0  0  0  0  0  0  0  0
  1  2  2  0
  2  3  1  0
  2  7  1  0
  3  4  1  0
  4  5  1  0
  5  6  1  0
  6  7  1  0
  7  8  2  3
  8  9  1  0
  9 10  2  0
  9 18  1  0
 10 11  1  0
 11 12  2  3
 11 15  1  0
 12 13  1  0
 13 14  1  0
 15 16  2  3
 15 18  1  0
 16 17  1  0
M  END
