
     RDKit          3D

 18 19  0  0  0  0  0  0  0  0999 V2000
    4.4970    1.0500    0.3790 N   0  0  0  0  0  0  0  0  0  0  0  0
    3.8390   -0.2130    0.2220 C   0  0  0  0  0  0  0  0  0  0  0  0
    2.5870   -0.1100   -0.6410 C   0  0  1  0  0  0  0  0  0  0  0  0
    2.0210   -1.4620   -0.7160 C   0  0  0  0  0  0  0  0  0  0  0  0
    0.8180   -1.4850   -0.1660 C   0  0  0  0  0  0  0  0  0  0  0  0
   -0.2840   -3.0840   -0.0560 Br  0  0  0  0  0  0  0  0  0  0  0  0
    0.4840   -0.1800    0.3130 C   0  0  0  0  0  0  0  0  0  0  0  0
   -0.7160    0.3390    0.9960 C   0  0  0  0  0  0  0  0  0  0  0  0
   -1.9550    0.2390    0.3180 N   0  0  0  0  0  0  0  0  0  0  0  0
   -2.2610    1.1520   -0.6600 C   0  0  0  0  0  0  0  0  0  0  0  0
   -1.4080    2.0280   -0.9680 O   0  0  0  0  0  0  0  0  0  0  0  0
   -3.4310    1.1580   -1.3080 N   0  0  0  0  0  0  0  0  0  0  0  0
   -4.3850    0.2450   -1.0230 C   0  0  0  0  0  0  0  0  0  0  0  0
   -4.1110   -0.6860   -0.0460 C   0  0  0  0  0  0  0  0  0  0  0  0
   -5.4010   -2.0020    0.4120 Br  0  0  0  0  0  0  0  0  0  0  0  0
   -2.8760   -0.6710    0.6210 C   0  0  0  0  0  0  0  0  0  0  0  0
   -2.6500   -1.5190    1.5100 O   0  0  0  0  0  0  0  0  0  0  0  0
    1.5210    0.6420    0.0390 C   0  0  0  0  0  0  0  0  0  0  0  0
  1  2  1  0
  3  2  1  1
  3  4  1  0
  3 18  1  0
  4  5  2  0
  5  6  1  0
  5  7  1  0
  7  8  1  0
  7 18  2  0
  8  9  1  0
  9 10  1  0
  9 16  1  0
 10 11  2  0
 10 12  1  0
 12 13  1  0
 13 14  2  0
 14 15  1  0
 14 16  1  0
 16 17  2  0
M  END
