
     RDKit          3D

 17 17  0  0  0  0  0  0  0  0999 V2000
    4.0980   -0.9100   -0.6330 N   0  0  0  0  0  0  0  0  0  0  0  0
    3.1450   -0.2110   -1.4440 C   0  0  0  0  0  0  0  0  0  0  0  0
    2.2710    0.7170   -0.6300 C   0  0  0  0  0  0  0  0  0  0  0  0
    1.5150    0.0330    0.3680 N   0  0  0  0  0  0  0  0  0  0  0  0
    0.7130    0.9900    1.1030 C   0  0  0  0  0  0  0  0  0  0  0  0
   -0.0940    1.9000    0.2110 C   0  0  0  0  0  0  0  0  0  0  0  0
   -1.1990    2.5730    0.9330 C   0  0  0  0  0  0  0  0  0  0  0  0
   -0.8780    4.3580    1.6250 Br  0  0  0  0  0  0  0  0  0  0  0  0
   -2.3870    2.0790    1.1560 C   0  0  0  0  0  0  0  0  0  0  0  0
   -2.8750    0.7490    0.7350 C   0  0  0  0  0  0  0  0  0  0  0  0
   -2.4720    0.3790   -0.5480 O   0  0  0  0  0  0  0  0  0  0  0  0
   -3.0770   -0.8440   -0.8200 C   0  0  0  0  0  0  0  0  0  0  0  0
   -2.0850   -1.9730   -0.9220 C   0  0  0  0  0  0  0  0  0  0  0  0
   -1.3870   -2.2610    0.3540 C   0  0  0  0  0  0  0  0  0  0  0  0
   -1.8850   -3.1770    1.0910 O   0  0  0  0  0  0  0  0  0  0  0  0
   -0.2160   -1.5890    0.7980 N   0  0  0  0  0  0  0  0  0  0  0  0
    0.7080   -1.0430   -0.1710 C   0  0  0  0  0  0  0  0  0  0  0  0
  1  2  1  0
  2  3  1  0
  3  4  1  0
  4  5  1  0
  4 17  1  0
  5  6  1  0
  6  7  1  0
  7  8  1  0
  7  9  2  0
  9 10  1  0
 10 11  1  0
 11 12  1  0
 12 13  1  0
 13 14  1  0
 14 15  2  0
 14 16  1  0
 16 17  1  0
M  CHG  1   1   1
M  END
