
     RDKit          3D

 17 18  0  0  0  0  0  0  0  0999 V2000
   -0.7850   -1.2460   -0.7440 O   0  0  0  0  0  0  0  0  0  0  0  0
   -0.3350   -0.1720   -0.2180 C   0  0  0  0  0  0  0  0  0  0  0  0
    1.0710    0.0420   -0.2290 N   0  0  0  0  0  0  0  0  0  0  0  0
    1.9550   -0.9290   -0.8190 C   0  0  0  0  0  0  0  0  0  0  0  0
    3.4000   -0.5770   -0.7680 C   0  0  2  0  0  0  0  0  0  0  0  0
    3.9080   -0.3910    0.6530 C   0  0  0  0  0  0  0  0  0  0  0  0
    5.0830    0.5180    0.4220 C   0  0  0  0  0  0  0  0  0  0  0  0
    4.9760    1.0940   -0.8110 O   0  0  0  0  0  0  0  0  0  0  0  0
    3.7350    0.7780   -1.3470 C   0  0  0  0  0  0  0  0  0  0  0  0
   -1.2580    0.7250    0.3360 N   0  0  0  0  0  0  0  0  0  0  0  0
   -2.6810    0.5320    0.3640 C   0  0  0  0  0  0  0  0  0  0  0  0
   -3.5050    1.3590   -0.2230 C   0  0  0  0  0  0  0  0  0  0  0  0
   -4.9240    1.0400   -0.1140 C   0  0  0  0  0  0  0  0  0  0  0  0
   -5.3650   -0.0060    0.5280 C   0  0  0  0  0  0  0  0  0  0  0  0
   -7.2760   -0.3020    0.5880 Br  0  0  0  0  0  0  0  0  0  0  0  0
   -4.5260   -0.9170    1.1740 N   0  0  0  0  0  0  0  0  0  0  0  0
   -3.1560   -0.6430    1.0900 C   0  0  0  0  0  0  0  0  0  0  0  0
  1  2  2  0
  2  3  1  0
  2 10  1  0
  3  4  1  0
  5  4  1  1
  5  6  1  0
  5  9  1  0
  6  7  1  0
  7  8  1  0
  8  9  1  0
 10 11  1  0
 11 12  2  0
 11 17  1  0
 12 13  1  0
 13 14  2  0
 14 15  1  0
 14 16  1  0
 16 17  1  0
M  CHG  1  16   1
M  END
