
     RDKit          3D

 18 19  0  0  0  0  0  0  0  0999 V2000
   -3.6090   -1.1650    1.4280 C   0  0  0  0  0  0  0  0  0  0  0  0
   -3.3860    0.0690    0.6380 C   0  0  0  0  0  0  0  0  0  0  0  0
   -4.4220    0.8800    0.3110 N   0  0  0  0  0  0  0  0  0  0  0  0
   -4.2010    1.9940   -0.4050 C   0  0  0  0  0  0  0  0  0  0  0  0
   -5.5220    3.0430   -0.8310 Cl  0  0  0  0  0  0  0  0  0  0  0  0
   -2.9260    2.3210   -0.8140 C   0  0  0  0  0  0  0  0  0  0  0  0
   -1.8450    1.4800   -0.4760 C   0  0  0  0  0  0  0  0  0  0  0  0
   -2.0660    0.3460    0.2530 C   0  0  0  0  0  0  0  0  0  0  0  0
   -1.0760   -0.5610    0.6460 N   0  0  0  0  0  0  0  0  0  0  0  0
    0.3260   -0.5160    0.3890 C   0  0  0  0  0  0  0  0  0  0  0  0
    0.7280    0.4620   -0.2740 O   0  0  0  0  0  0  0  0  0  0  0  0
    1.2400   -1.5270    0.8580 C   0  0  0  0  0  0  0  0  0  0  0  0
    2.5090   -1.6220    0.7080 C   0  0  0  0  0  0  0  0  0  0  0  0
    3.3690   -0.6940    0.0010 C   0  0  0  0  0  0  0  0  0  0  0  0
    4.7620   -0.8740   -0.1160 C   0  0  0  0  0  0  0  0  0  0  0  0
    5.2710    0.1650   -0.8340 C   0  0  0  0  0  0  0  0  0  0  0  0
    4.1870    0.9670   -1.1470 C   0  0  0  0  0  0  0  0  0  0  0  0
    3.1230    0.4170   -0.6370 O   0  0  0  0  0  0  0  0  0  0  0  0
  1  2  1  0
  2  3  2  0
  2  8  1  0
  3  4  1  0
  4  5  1  0
  4  6  2  0
  6  7  1  0
  7  8  2  0
  8  9  1  0
  9 10  1  0
 10 11  2  0
 10 12  1  0
 12 13  2  3
 13 14  1  0
 14 15  2  0
 14 18  1  0
 15 16  1  0
 16 17  2  0
 17 18  1  0
M  END
