
     RDKit          3D

 17 16  0  0  0  0  0  0  0  0999 V2000
    5.3100    0.4560    0.1300 N   0  0  0  0  0  0  0  0  0  0  0  0
    4.0330    0.4300   -0.6000 C   0  0  1  0  0  0  0  0  0  0  0  0
    4.1820    1.1090   -1.8280 O   0  0  0  0  0  0  0  0  0  0  0  0
    3.7520   -0.8800   -0.8610 O   0  0  0  0  0  0  0  0  0  0  0  0
    2.5090   -1.3010   -0.4130 C   0  0  0  0  0  0  0  0  0  0  0  0
    1.4420   -0.5120   -1.1190 C   0  0  0  0  0  0  0  0  0  0  0  0
    0.1560   -0.8340   -0.7650 O   0  0  0  0  0  0  0  0  0  0  0  0
   -0.1450   -0.6540    0.5700 C   0  0  0  0  0  0  0  0  0  0  0  0
   -1.4700   -0.9870    0.9170 O   0  0  0  0  0  0  0  0  0  0  0  0
   -2.6180   -0.4470    0.4150 C   0  0  0  0  0  0  0  0  0  0  0  0
   -3.0610    0.7060    0.8450 C   0  0  0  0  0  0  0  0  0  0  0  0
   -2.3890    1.5050    1.8830 C   0  0  0  0  0  0  0  0  0  0  0  0
   -1.9920    2.7700    1.3410 N   0  0  0  0  0  0  0  0  0  0  0  0
   -3.3740   -1.1490   -0.6130 C   0  0  0  0  0  0  0  0  0  0  0  0
   -4.5440   -0.5890   -1.1490 O   0  0  0  0  0  0  0  0  0  0  0  0
   -3.0080   -2.3080   -1.0750 C   0  0  0  0  0  0  0  0  0  0  0  0
   -1.8980   -3.0060   -0.6690 O   0  0  0  0  0  0  0  0  0  0  0  0
  2  1  1  1
  2  3  1  0
  2  4  1  0
  4  5  1  0
  5  6  1  0
  6  7  1  0
  7  8  1  0
  8  9  1  0
  9 10  1  0
 10 11  2  3
 10 14  1  0
 11 12  1  0
 12 13  1  0
 14 15  1  0
 14 16  2  3
 16 17  1  0
M  CHG  1  13   1
M  END
