
     RDKit          3D

 18 19  0  0  0  0  0  0  0  0999 V2000
    3.5740    2.3800   -0.9580 C   0  0  0  0  0  0  0  0  0  0  0  0
    4.2790    1.3240   -0.7500 C   0  0  0  0  0  0  0  0  0  0  0  0
    6.0730    1.6530   -0.9980 Cl  0  0  0  0  0  0  0  0  0  0  0  0
    4.0210   -0.0170   -0.3810 C   0  0  0  0  0  0  0  0  0  0  0  0
    5.1690   -0.7910   -0.2870 C   0  0  0  0  0  0  0  0  0  0  0  0
    2.8930   -0.7830   -0.0810 N   0  0  0  0  0  0  0  0  0  0  0  0
    1.5200   -0.4580   -0.0400 C   0  0  0  0  0  0  0  0  0  0  0  0
    1.2110    0.7090   -0.3130 O   0  0  0  0  0  0  0  0  0  0  0  0
    0.5220   -1.4130    0.2970 N   0  0  0  0  0  0  0  0  0  0  0  0
   -0.8610   -1.1390    0.3410 C   0  0  0  0  0  0  0  0  0  0  0  0
   -1.7070   -2.0890    0.9480 C   0  0  0  0  0  0  0  0  0  0  0  0
   -3.0530   -1.8660    0.9960 C   0  0  0  0  0  0  0  0  0  0  0  0
   -3.6540   -0.7390    0.4750 C   0  0  0  0  0  0  0  0  0  0  0  0
   -2.8520    0.1920   -0.1160 C   0  0  0  0  0  0  0  0  0  0  0  0
   -1.4890   -0.0310   -0.1670 C   0  0  0  0  0  0  0  0  0  0  0  0
   -3.7250    1.2880   -0.5870 C   0  0  0  0  0  0  0  0  0  0  0  0
   -4.9360    1.1170    0.3330 C   0  0  0  0  0  0  0  0  0  0  0  0
   -4.9960   -0.3140    0.4170 O   0  0  0  0  0  0  0  0  0  0  0  0
  1  2  2  0
  2  3  1  0
  2  4  1  0
  4  5  2  0
  4  6  1  0
  6  7  1  0
  7  8  2  0
  7  9  1  0
  9 10  1  0
 10 11  2  0
 10 15  1  0
 11 12  1  0
 12 13  2  0
 13 14  1  0
 13 18  1  0
 14 15  2  0
 14 16  1  0
 16 17  1  0
 17 18  1  0
M  END
