
     RDKit          3D

 18 19  0  0  0  0  0  0  0  0999 V2000
   -4.7880    0.3170   -0.9890 C   0  0  0  0  0  0  0  0  0  0  0  0
   -3.3790    0.0290   -0.5970 C   0  0  0  0  0  0  0  0  0  0  0  0
   -2.8740   -1.2510   -0.5310 C   0  0  0  0  0  0  0  0  0  0  0  0
   -1.5770   -1.4670   -0.1680 C   0  0  0  0  0  0  0  0  0  0  0  0
   -0.7490   -0.4160    0.1400 C   0  0  0  0  0  0  0  0  0  0  0  0
   -1.2630    0.8610    0.0710 C   0  0  0  0  0  0  0  0  0  0  0  0
   -2.5650    1.1190   -0.2910 C   0  0  0  0  0  0  0  0  0  0  0  0
   -0.5470    2.1220    0.3600 C   0  0  0  0  0  0  0  0  0  0  0  0
   -1.4950    3.5720    0.1030 Cl  0  0  0  0  0  0  0  0  0  0  0  0
    0.6990    2.2620    0.7790 C   0  0  0  0  0  0  0  0  0  0  0  0
    1.7500    1.3040    1.0890 C   0  0  0  0  0  0  0  0  0  0  0  0
    1.6710   -0.0080    0.9600 C   0  0  0  0  0  0  0  0  0  0  0  0
    2.8940   -0.7370    1.3500 C   0  0  0  0  0  0  0  0  0  0  0  0
    3.4420   -1.5060    0.2410 N   0  0  0  0  0  0  0  0  0  0  0  0
    3.8540   -0.8620   -0.9700 C   0  0  0  0  0  0  0  0  0  0  0  0
    3.7370    0.3660   -1.0630 O   0  0  0  0  0  0  0  0  0  0  0  0
    4.3790   -1.5570   -2.0480 O   0  0  0  0  0  0  0  0  0  0  0  0
    0.5740   -0.7840    0.5020 N   0  0  0  0  0  0  0  0  0  0  0  0
  1  2  1  0
  2  3  2  0
  2  7  1  0
  3  4  1  0
  4  5  2  0
  5  6  1  0
  5 18  1  0
  6  7  2  0
  6  8  1  0
  8  9  1  0
  8 10  2  0
 10 11  1  0
 11 12  2  0
 12 13  1  0
 12 18  1  0
 13 14  1  0
 14 15  1  0
 15 16  2  0
 15 17  1  0
M  END
