
     RDKit          3D

 18 19  0  0  0  0  0  0  0  0999 V2000
    4.8500    0.5830    1.6840 C   0  0  0  0  0  0  0  0  0  0  0  0
    4.0720    0.0530    0.7580 C   0  0  0  0  0  0  0  0  0  0  0  0
    2.6160    0.0850    0.6630 C   0  0  0  0  0  0  0  0  0  0  0  0
    2.2600   -0.2250   -0.5900 C   0  0  0  0  0  0  0  0  0  0  0  0
    0.8850   -0.3080   -1.1200 C   0  0  0  0  0  0  0  0  0  0  0  0
    0.7370   -0.6100   -2.3110 O   0  0  0  0  0  0  0  0  0  0  0  0
   -0.2260   -0.0520   -0.2950 N   0  0  0  0  0  0  0  0  0  0  0  0
   -1.5760   -0.0950   -0.6640 C   0  0  0  0  0  0  0  0  0  0  0  0
   -2.0650   -0.3970   -1.9090 C   0  0  0  0  0  0  0  0  0  0  0  0
   -3.4350   -0.4210   -2.2040 C   0  0  0  0  0  0  0  0  0  0  0  0
   -4.3620   -0.1390   -1.2510 C   0  0  0  0  0  0  0  0  0  0  0  0
   -6.0970   -0.1560   -1.5800 Cl  0  0  0  0  0  0  0  0  0  0  0  0
   -3.9040    0.1680    0.0070 C   0  0  0  0  0  0  0  0  0  0  0  0
   -2.5650    0.1900    0.2940 C   0  0  0  0  0  0  0  0  0  0  0  0
   -2.0960    0.5020    1.5730 O   0  0  0  0  0  0  0  0  0  0  0  0
   -3.0670    0.7940    2.5590 C   0  0  0  0  0  0  0  0  0  0  0  0
    3.4200   -0.4690   -1.3600 N   0  0  0  0  0  0  0  0  0  0  0  0
    4.5190   -0.7190   -0.4330 C   0  0  0  0  0  0  0  0  0  0  0  0
  1  2  2  0
  2  3  1  0
  2 18  1  0
  3  4  2  0
  4  5  1  0
  4 17  1  0
  5  6  2  0
  5  7  1  0
  7  8  1  0
  8  9  2  0
  8 14  1  0
  9 10  1  0
 10 11  2  0
 11 12  1  0
 11 13  1  0
 13 14  2  0
 14 15  1  0
 15 16  1  0
 17 18  1  0
M  END
