
     RDKit          3D

 24 26  0  0  0  0  0  0  0  0999 V2000
    6.9820   -0.4780   -1.7400 N   0  0  0  0  0  0  0  0  0  0  0  0
    6.1430    0.9950   -1.4710 S   0  0  1  0  0  0  0  0  0  0  0  0
    6.9970    1.9810   -0.7070 O   0  0  0  0  0  0  0  0  0  0  0  0
    5.7320    1.5600   -2.8010 O   0  0  0  0  0  0  0  0  0  0  0  0
    4.6910    0.6140   -0.5540 C   0  0  0  0  0  0  0  0  0  0  0  0
    3.5530    0.3150   -1.2200 C   0  0  0  0  0  0  0  0  0  0  0  0
    2.3810    0.0070   -0.5100 C   0  0  0  0  0  0  0  0  0  0  0  0
    2.3170   -0.0110    0.8560 C   0  0  0  0  0  0  0  0  0  0  0  0
    1.1450   -0.3760    1.6050 C   0  0  0  0  0  0  0  0  0  0  0  0
    1.2610   -0.0730    2.8840 O   0  0  0  0  0  0  0  0  0  0  0  0
   -0.0430   -0.9630    1.2670 N   0  0  0  0  0  0  0  0  0  0  0  0
   -1.0780   -1.1120    2.3270 C   0  0  0  0  0  0  0  0  0  0  0  0
   -2.4340   -0.9500    1.6680 C   0  0  0  0  0  0  0  0  0  0  0  0
   -2.3550   -0.0820    0.4330 C   0  0  2  0  0  0  0  0  0  0  0  0
   -3.7150    0.1370   -0.1550 C   0  0  0  0  0  0  0  0  0  0  0  0
   -4.4470   -0.9020   -0.6930 C   0  0  0  0  0  0  0  0  0  0  0  0
   -5.6970   -0.7010   -1.2340 C   0  0  0  0  0  0  0  0  0  0  0  0
   -6.2700    0.5450   -1.2600 C   0  0  0  0  0  0  0  0  0  0  0  0
   -5.5520    1.5870   -0.7280 C   0  0  0  0  0  0  0  0  0  0  0  0
   -4.3050    1.3830   -0.1900 C   0  0  0  0  0  0  0  0  0  0  0  0
   -1.3860   -0.5330   -0.6110 C   0  0  0  0  0  0  0  0  0  0  0  0
   -0.4160   -1.5110   -0.0200 C   0  0  0  0  0  0  0  0  0  0  0  0
    3.5270    0.3080    1.5020 C   0  0  0  0  0  0  0  0  0  0  0  0
    4.6810    0.6120    0.8140 C   0  0  0  0  0  0  0  0  0  0  0  0
  2  1  1  6
  2  3  2  0
  2  4  2  0
  2  5  1  0
  5  6  2  0
  5 24  1  0
  6  7  1  0
  7  8  2  0
  8  9  1  0
  8 23  1  0
  9 10  2  0
  9 11  1  0
 11 12  1  0
 11 22  1  0
 12 13  1  0
 13 14  1  0
 14 15  1  6
 14 21  1  0
 15 16  2  0
 15 20  1  0
 16 17  1  0
 17 18  2  0
 18 19  1  0
 19 20  2  0
 21 22  1  0
 23 24  2  0
M  END
