
     RDKit          3D

 25 27  0  0  0  0  0  0  0  0999 V2000
   -5.5530    1.7800    0.2610 C   0  0  0  0  0  0  0  0  0  0  0  0
   -4.1050    2.0850    0.5860 C   0  0  0  0  0  0  0  0  0  0  0  0
   -3.1790    1.0970    0.0230 C   0  0  0  0  0  0  0  0  0  0  0  0
   -2.4480    1.4240   -1.0950 C   0  0  0  0  0  0  0  0  0  0  0  0
   -1.5780    0.5040   -1.6310 C   0  0  0  0  0  0  0  0  0  0  0  0
   -1.3930   -0.7500   -1.1010 C   0  0  0  0  0  0  0  0  0  0  0  0
   -0.3050   -1.8600   -1.8180 S   0  0  1  0  0  0  0  0  0  0  0  0
   -0.9870   -3.0380   -2.4600 O   0  0  0  0  0  0  0  0  0  0  0  0
    0.3940   -1.1630   -2.9840 O   0  0  0  0  0  0  0  0  0  0  0  0
    0.9300   -2.3330   -0.7430 N   0  0  0  0  0  0  0  0  0  0  0  0
    1.8510   -1.4140   -0.2050 C   0  0  0  0  0  0  0  0  0  0  0  0
    1.4520   -0.2190    0.3190 C   0  0  0  0  0  0  0  0  0  0  0  0
    2.4050    0.6680    0.8510 C   0  0  0  0  0  0  0  0  0  0  0  0
    3.7400    0.3140    0.8360 C   0  0  0  0  0  0  0  0  0  0  0  0
    4.1580   -0.8940    0.3090 C   0  0  0  0  0  0  0  0  0  0  0  0
    3.2000   -1.7240   -0.1970 C   0  0  0  0  0  0  0  0  0  0  0  0
    5.6080   -0.9860    0.4310 C   0  0  0  0  0  0  0  0  0  0  0  0
    6.2970   -1.9780    0.0370 O   0  0  0  0  0  0  0  0  0  0  0  0
    6.0190    0.1730    1.0300 O   0  0  0  0  0  0  0  0  0  0  0  0
    4.9560    1.0300    1.3170 C   0  0  1  0  0  0  0  0  0  0  0  0
    5.1570    2.3230    0.5700 C   0  0  0  0  0  0  0  0  0  0  0  0
   -2.1260   -1.0870    0.0260 C   0  0  0  0  0  0  0  0  0  0  0  0
   -2.0210   -2.3940    0.6890 C   0  0  0  0  0  0  0  0  0  0  0  0
   -2.9980   -0.1610    0.5610 C   0  0  0  0  0  0  0  0  0  0  0  0
   -3.7630   -0.5000    1.7300 N   0  0  0  0  0  0  0  0  0  0  0  0
  1  2  1  0
  2  3  1  0
  3  4  2  0
  3 24  1  0
  4  5  1  0
  5  6  2  0
  6  7  1  0
  6 22  1  0
  7  8  2  0
  7  9  2  0
  7 10  1  1
 10 11  1  0
 11 12  2  0
 11 16  1  0
 12 13  1  0
 13 14  2  0
 14 15  1  0
 14 20  1  0
 15 16  2  0
 15 17  1  0
 17 18  2  0
 17 19  1  0
 19 20  1  0
 20 21  1  6
 22 23  1  0
 22 24  2  0
 24 25  1  0
M  END
