
     RDKit          3D

 25 27  0  0  0  0  0  0  0  0999 V2000
   -4.2900    1.6620    0.0060 C   0  0  0  0  0  0  0  0  0  0  0  0
   -4.3780    0.1750   -0.2450 C   0  0  2  0  0  0  0  0  0  0  0  0
   -4.9550   -0.4520    0.9460 C   0  0  0  0  0  0  0  0  0  0  0  0
   -6.1900    0.0150    1.4520 N   0  0  0  0  0  0  0  0  0  0  0  0
   -4.3580   -1.3960    1.5110 O   0  0  0  0  0  0  0  0  0  0  0  0
   -3.0340   -0.4080   -0.5070 C   0  0  0  0  0  0  0  0  0  0  0  0
   -1.9040    0.3900   -0.4040 C   0  0  0  0  0  0  0  0  0  0  0  0
   -0.6170   -0.1010   -0.6230 C   0  0  0  0  0  0  0  0  0  0  0  0
    0.4730    0.8410   -0.4970 C   0  0  0  0  0  0  0  0  0  0  0  0
    0.2250    2.0720   -0.7840 O   0  0  0  0  0  0  0  0  0  0  0  0
    1.7880    0.4620   -0.0720 C   0  0  0  0  0  0  0  0  0  0  0  0
    2.0150   -0.6680    0.6690 C   0  0  0  0  0  0  0  0  0  0  0  0
    3.3140   -1.0110    1.0690 C   0  0  0  0  0  0  0  0  0  0  0  0
    4.3590   -0.2060    0.7140 C   0  0  0  0  0  0  0  0  0  0  0  0
    4.1240    0.9430   -0.0390 C   0  0  0  0  0  0  0  0  0  0  0  0
    2.8530    1.2950   -0.4410 C   0  0  0  0  0  0  0  0  0  0  0  0
    5.1880    1.7950   -0.4210 N   0  0  0  0  0  0  0  0  0  0  0  0
    6.5030    1.4250   -0.0020 C   0  0  0  0  0  0  0  0  0  0  0  0
    7.4310    2.2860    0.1000 O   0  0  0  0  0  0  0  0  0  0  0  0
    6.7290   -0.0220    0.3110 C   0  0  0  0  0  0  0  0  0  0  0  0
    5.6390   -0.5040    1.0800 O   0  0  0  0  0  0  0  0  0  0  0  0
   -0.5070   -1.4250   -0.9500 C   0  0  0  0  0  0  0  0  0  0  0  0
   -1.6300   -2.2480   -1.0590 C   0  0  0  0  0  0  0  0  0  0  0  0
   -2.9020   -1.7280   -0.8340 C   0  0  0  0  0  0  0  0  0  0  0  0
   -4.3300   -2.8210   -0.9680 S   0  0  0  0  0  0  0  0  0  0  0  0
  2  1  1  1
  2  3  1  0
  2  6  1  0
  3  4  1  0
  3  5  2  0
  6  7  2  0
  6 24  1  0
  7  8  1  0
  8  9  1  0
  8 22  2  0
  9 10  2  0
  9 11  1  0
 11 12  2  0
 11 16  1  0
 12 13  1  0
 13 14  2  0
 14 15  1  0
 14 21  1  0
 15 16  2  0
 15 17  1  0
 17 18  1  0
 18 19  2  0
 18 20  1  0
 20 21  1  0
 22 23  1  0
 23 24  2  0
 24 25  1  0
M  END
