
     RDKit          3D

 25 27  0  0  0  0  0  0  0  0999 V2000
   -6.2980   -1.6210    0.9450 C   0  0  0  0  0  0  0  0  0  0  0  0
   -4.8570   -1.7150    0.6530 C   0  0  0  0  0  0  0  0  0  0  0  0
   -4.2640   -2.8420    0.6290 O   0  0  0  0  0  0  0  0  0  0  0  0
   -4.0900   -0.5130    0.3870 C   0  0  0  0  0  0  0  0  0  0  0  0
   -4.6940    0.7040    0.4060 C   0  0  0  0  0  0  0  0  0  0  0  0
   -3.9710    1.8480    0.1540 C   0  0  0  0  0  0  0  0  0  0  0  0
   -4.6810    3.1480    0.1880 C   0  0  0  0  0  0  0  0  0  0  0  0
   -2.6470    1.7320   -0.1120 C   0  0  0  0  0  0  0  0  0  0  0  0
   -1.9570    0.5140   -0.1490 C   0  0  0  0  0  0  0  0  0  0  0  0
   -0.5750    0.4750   -0.4190 N   0  0  0  0  0  0  0  0  0  0  0  0
    0.1890   -0.6720   -0.7320 C   0  0  0  0  0  0  0  0  0  0  0  0
   -0.3480   -1.7930   -0.7980 O   0  0  0  0  0  0  0  0  0  0  0  0
    1.6440   -0.4560   -0.9720 C   0  0  1  0  0  0  0  0  0  0  0  0
    2.3270    0.2570    0.5580 S   0  0  0  0  0  0  0  0  0  0  0  0
    4.0880    0.0860    0.4440 C   0  0  0  0  0  0  0  0  0  0  0  0
    4.9170    0.8800    1.1640 C   0  0  0  0  0  0  0  0  0  0  0  0
    6.3130    0.7720    1.0980 C   0  0  0  0  0  0  0  0  0  0  0  0
    6.8190   -0.1900    0.2580 C   0  0  0  0  0  0  0  0  0  0  0  0
    8.2170   -0.2960    0.1930 O   0  0  0  0  0  0  0  0  0  0  0  0
    5.9910   -0.9990   -0.4760 C   0  0  0  0  0  0  0  0  0  0  0  0
    4.5980   -0.8680   -0.3890 C   0  0  0  0  0  0  0  0  0  0  0  0
    3.7850   -1.7270   -1.1670 N   0  0  0  0  0  0  0  0  0  0  0  0
    2.3680   -1.7180   -1.1890 C   0  0  0  0  0  0  0  0  0  0  0  0
    1.7870   -2.8090   -1.3960 O   0  0  0  0  0  0  0  0  0  0  0  0
   -2.7150   -0.5920    0.1070 C   0  0  0  0  0  0  0  0  0  0  0  0
  1  2  1  0
  2  3  2  0
  2  4  1  0
  4  5  2  0
  4 25  1  0
  5  6  1  0
  6  7  1  0
  6  8  2  0
  8  9  1  0
  9 10  1  0
  9 25  2  0
 10 11  1  0
 11 12  2  0
 13 11  1  1
 13 14  1  0
 13 23  1  0
 14 15  1  0
 15 16  2  0
 15 21  1  0
 16 17  1  0
 17 18  2  0
 18 19  1  0
 18 20  1  0
 20 21  2  0
 21 22  1  0
 22 23  1  0
 23 24  2  0
M  END
