
     RDKit          3D

 25 27  0  0  0  0  0  0  0  0999 V2000
    4.7020    1.7640    2.2260 C   0  0  0  0  0  0  0  0  0  0  0  0
    4.6600    0.9450    1.0150 N   0  0  0  0  0  0  0  0  0  0  0  0
    3.4070    0.4430    0.4880 C   0  0  0  0  0  0  0  0  0  0  0  0
    2.4240    0.7970    1.1870 O   0  0  0  0  0  0  0  0  0  0  0  0
    3.3310   -0.3690   -0.7040 C   0  0  0  0  0  0  0  0  0  0  0  0
    4.5450   -0.7670   -1.2870 C   0  0  0  0  0  0  0  0  0  0  0  0
    4.5370   -1.5990   -2.3860 C   0  0  0  0  0  0  0  0  0  0  0  0
    3.3450   -2.0290   -2.8980 C   0  0  0  0  0  0  0  0  0  0  0  0
    2.1190   -1.6450   -2.3360 C   0  0  0  0  0  0  0  0  0  0  0  0
    2.1440   -0.8010   -1.2240 C   0  0  0  0  0  0  0  0  0  0  0  0
    0.9110   -0.3310   -0.7150 N   0  0  0  0  0  0  0  0  0  0  0  0
   -0.3720   -0.8580   -0.8790 C   0  0  0  0  0  0  0  0  0  0  0  0
   -0.4550   -1.9190   -1.5770 O   0  0  0  0  0  0  0  0  0  0  0  0
   -1.6290   -0.3540   -0.3570 C   0  0  0  0  0  0  0  0  0  0  0  0
   -2.8040   -1.0470   -0.6530 C   0  0  0  0  0  0  0  0  0  0  0  0
   -4.0380   -0.6460   -0.2060 C   0  0  0  0  0  0  0  0  0  0  0  0
   -5.1980   -1.4830   -0.6010 C   0  0  0  0  0  0  0  0  0  0  0  0
   -4.1680    0.5030    0.5840 C   0  0  0  0  0  0  0  0  0  0  0  0
   -3.0660    1.1960    0.8910 C   0  0  0  0  0  0  0  0  0  0  0  0
   -1.8030    0.7680    0.4210 C   0  0  0  0  0  0  0  0  0  0  0  0
   -0.6670    1.4860    0.7400 O   0  0  0  0  0  0  0  0  0  0  0  0
   -3.2690    2.3790    1.7130 C   0  0  0  0  0  0  0  0  0  0  0  0
   -2.5780    3.3770    1.9750 O   0  0  0  0  0  0  0  0  0  0  0  0
   -4.9290    2.1490    2.4020 S   0  0  0  0  0  0  0  0  0  0  0  0
   -5.4640    0.9960    1.1030 C   0  0  0  0  0  0  0  0  0  0  0  0
  1  2  1  0
  2  3  1  0
  3  4  2  0
  3  5  1  0
  5  6  2  0
  5 10  1  0
  6  7  1  0
  7  8  2  0
  8  9  1  0
  9 10  2  0
 10 11  1  0
 11 12  1  0
 12 13  2  0
 12 14  1  0
 14 15  2  0
 14 20  1  0
 15 16  1  0
 16 17  1  0
 16 18  2  0
 18 19  1  0
 18 25  1  0
 19 20  2  0
 19 22  1  0
 20 21  1  0
 22 23  2  0
 22 24  1  0
 24 25  1  0
M  END
