
     RDKit          3D

 25 27  0  0  0  0  0  0  0  0999 V2000
    2.1860    0.7860   -1.8390 C   0  0  0  0  0  0  0  0  0  0  0  0
    2.5330    0.1570   -0.5100 C   0  0  1  0  0  0  0  0  0  0  0  0
    2.4190    1.1890    0.5970 C   0  0  0  0  0  0  0  0  0  0  0  0
    1.5410   -0.9450   -0.2440 C   0  0  0  0  0  0  0  0  0  0  0  0
    0.1450   -0.3900   -0.1960 C   0  0  0  0  0  0  0  0  0  0  0  0
   -0.0080    0.8320   -0.3700 O   0  0  0  0  0  0  0  0  0  0  0  0
   -0.9380   -1.2580    0.0410 N   0  0  0  0  0  0  0  0  0  0  0  0
   -2.2640   -0.8380    0.1030 C   0  0  0  0  0  0  0  0  0  0  0  0
   -2.8910    0.3670   -0.0230 C   0  0  0  0  0  0  0  0  0  0  0  0
   -4.2230    0.4390    0.0940 C   0  0  0  0  0  0  0  0  0  0  0  0
   -5.0140    1.6060   -0.0100 C   0  0  0  0  0  0  0  0  0  0  0  0
   -6.3620    1.5520    0.1270 C   0  0  0  0  0  0  0  0  0  0  0  0
   -7.0620    0.4050    0.3700 C   0  0  0  0  0  0  0  0  0  0  0  0
   -6.3180   -0.7530    0.4770 C   0  0  0  0  0  0  0  0  0  0  0  0
   -4.9460   -0.6990    0.3380 C   0  0  0  0  0  0  0  0  0  0  0  0
   -3.6490   -1.9490    0.4060 S   0  0  0  0  0  0  0  0  0  0  0  0
   -7.3860   -1.4780    0.6910 C   0  0  0  0  0  0  0  0  0  0  0  0
   -8.1590   -0.2620    0.5770 C   0  0  0  0  0  0  0  0  0  0  0  0
    3.9220   -0.3360   -0.4980 C   0  0  0  0  0  0  0  0  0  0  0  0
    4.1480   -1.5580   -0.2980 O   0  0  0  0  0  0  0  0  0  0  0  0
    4.9870    0.4940   -0.6970 O   0  0  0  0  0  0  0  0  0  0  0  0
    6.3300    0.1270   -0.7050 C   0  0  0  0  0  0  0  0  0  0  0  0
    6.7950   -0.4700    0.5560 C   0  0  0  0  0  0  0  0  0  0  0  0
    5.9210   -0.6390    1.6560 N   0  0  0  0  0  0  0  0  0  0  0  0
    7.9810   -0.8430    0.6820 O   0  0  0  0  0  0  0  0  0  0  0  0
  2  1  1  6
  2  3  1  0
  2  4  1  0
  2 19  1  0
  4  5  1  0
  5  6  2  0
  5  7  1  0
  7  8  1  0
  8  9  2  0
  8 16  1  0
  9 10  1  0
 10 11  1  0
 10 15  2  0
 11 12  2  0
 12 13  1  0
 13 14  1  0
 13 18  2  0
 14 15  1  0
 14 17  2  0
 15 16  1  0
 17 18  1  0
 19 20  2  0
 19 21  1  0
 21 22  1  0
 22 23  1  0
 23 24  1  0
 23 25  2  0
M  END
