
     RDKit          3D

 25 27  0  0  0  0  0  0  0  0999 V2000
   -5.4690    1.7320   -0.6350 C   0  0  0  0  0  0  0  0  0  0  0  0
   -4.1510    1.2220   -0.0950 C   0  0  2  0  0  0  0  0  0  0  0  0
   -3.4600    2.3020    0.7030 C   0  0  0  0  0  0  0  0  0  0  0  0
   -3.2580    0.7420   -1.2400 C   0  0  0  0  0  0  0  0  0  0  0  0
   -2.0060    0.2830   -0.6020 C   0  0  0  0  0  0  0  0  0  0  0  0
   -0.8740    0.6140   -1.1030 O   0  0  0  0  0  0  0  0  0  0  0  0
   -2.0680   -0.5370    0.5840 C   0  0  0  0  0  0  0  0  0  0  0  0
   -3.1840   -0.6500    1.2570 C   0  0  0  0  0  0  0  0  0  0  0  0
   -4.4200    0.0590    0.8270 C   0  0  0  0  0  0  0  0  0  0  0  0
   -3.2970   -1.4340    2.4120 O   0  0  0  0  0  0  0  0  0  0  0  0
   -2.8540   -2.7690    2.5190 C   0  0  0  0  0  0  0  0  0  0  0  0
   -1.4400   -2.9750    1.3930 S   0  0  0  0  0  0  0  0  0  0  0  0
   -0.8630   -1.2620    1.0760 C   0  0  1  0  0  0  0  0  0  0  0  0
    0.2280   -1.2300    0.1660 N   0  0  0  0  0  0  0  0  0  0  0  0
    1.4780   -0.7310    0.6120 C   0  0  0  0  0  0  0  0  0  0  0  0
    1.6430   -0.3160    1.7940 O   0  0  0  0  0  0  0  0  0  0  0  0
    2.6520   -0.6660   -0.2680 C   0  0  0  0  0  0  0  0  0  0  0  0
    2.4990   -1.0720   -1.4370 O   0  0  0  0  0  0  0  0  0  0  0  0
    3.8940   -0.1820    0.1380 N   0  0  0  0  0  0  0  0  0  0  0  0
    5.0800   -0.0720   -0.6160 C   0  0  0  0  0  0  0  0  0  0  0  0
    5.2040   -0.3280   -1.9510 C   0  0  0  0  0  0  0  0  0  0  0  0
    6.4430   -0.1950   -2.6080 C   0  0  0  0  0  0  0  0  0  0  0  0
    7.5820    0.1940   -1.9490 C   0  0  0  0  0  0  0  0  0  0  0  0
    7.4630    0.4540   -0.6030 C   0  0  0  0  0  0  0  0  0  0  0  0
    6.2520    0.3240    0.0380 C   0  0  0  0  0  0  0  0  0  0  0  0
  2  1  1  6
  2  3  1  0
  2  4  1  0
  2  9  1  0
  4  5  1  0
  5  6  2  0
  5  7  1  0
  7  8  2  0
  7 13  1  0
  8  9  1  0
  8 10  1  0
 10 11  1  0
 11 12  1  0
 12 13  1  0
 13 14  1  6
 14 15  1  0
 15 16  2  0
 15 17  1  0
 17 18  2  0
 17 19  1  0
 19 20  1  0
 20 21  2  0
 20 25  1  0
 21 22  1  0
 22 23  2  0
 23 24  1  0
 24 25  2  0
M  END
