
     RDKit          3D

 11 12  0  0  0  0  0  0  0  0999 V2000
    4.5830   -0.1190   -0.1070 C   0  0  0  0  0  0  0  0  0  0  0  0
    3.8240    0.8180    0.4360 C   0  0  0  0  0  0  0  0  0  0  0  0
    2.6150    0.2010   -0.1070 C   0  0  0  0  0  0  0  0  0  0  0  0
    1.2210    0.4130   -0.1410 N   0  0  0  0  0  0  0  0  0  0  0  0
    0.2580   -0.6110    0.2620 C   0  0  0  0  0  0  0  0  0  0  0  0
   -1.0960   -0.1120   -0.0670 C   0  0  1  0  0  0  0  0  0  0  0  0
   -2.2220   -1.0060    0.3490 C   0  0  0  0  0  0  0  0  0  0  0  0
   -3.4090   -0.0550    0.0780 C   0  0  0  0  0  0  0  0  0  0  0  0
   -2.7680    1.2940    0.2120 C   0  0  0  0  0  0  0  0  0  0  0  0
   -1.4370    1.0750    0.5920 O   0  0  0  0  0  0  0  0  0  0  0  0
    3.3840   -0.7320   -0.6470 C   0  0  0  0  0  0  0  0  0  0  0  0
  1  2  2  0
  1 11  1  0
  2  3  1  0
  3  4  1  0
  3 11  2  0
  4  5  1  0
  6  5  1  1
  6  7  1  0
  6 10  1  0
  7  8  1  0
  8  9  1  0
  9 10  1  0
M  END
