
     RDKit          3D

 11 12  0  0  0  0  0  0  0  0999 V2000
   -2.3820    2.5170   -0.4290 O   0  0  0  0  0  0  0  0  0  0  0  0
   -1.6540    1.5140   -0.1480 C   0  0  0  0  0  0  0  0  0  0  0  0
   -2.3130    0.2550    0.2260 C   0  0  0  0  0  0  0  0  0  0  0  0
   -1.7700   -0.9400   -0.5160 C   0  0  0  0  0  0  0  0  0  0  0  0
   -0.5360   -1.5090    0.1080 C   0  0  0  0  0  0  0  0  0  0  0  0
    0.6450   -0.6330    0.0090 C   0  0  0  0  0  0  0  0  0  0  0  0
    1.8660   -1.1350    0.0560 C   0  0  0  0  0  0  0  0  0  0  0  0
    2.8590   -0.0730   -0.0620 C   0  0  0  0  0  0  0  0  0  0  0  0
    2.0540    1.1620   -0.1900 C   0  0  0  0  0  0  0  0  0  0  0  0
    0.7830    0.8100   -0.1460 C   0  0  0  0  0  0  0  0  0  0  0  0
   -0.2690    1.7870   -0.2440 N   0  0  0  0  0  0  0  0  0  0  0  0
  1  2  2  0
  2  3  1  0
  2 11  1  0
  3  4  1  0
  4  5  1  0
  5  6  1  0
  6  7  2  0
  6 10  1  0
  7  8  1  0
  8  9  1  0
  9 10  2  0
 10 11  1  0
M  END
