
     RDKit          3D

 11 11  0  0  0  0  0  0  0  0999 V2000
   -1.9010    1.1520    0.9030 C   0  0  0  0  0  0  0  0  0  0  0  0
   -1.9990    0.0250    0.2220 C   0  0  0  0  0  0  0  0  0  0  0  0
   -3.3140   -0.6030   -0.0300 C   0  0  0  0  0  0  0  0  0  0  0  0
   -0.8160   -0.6300   -0.2980 C   0  0  0  0  0  0  0  0  0  0  0  0
   -0.9480   -1.7540   -0.9730 C   0  0  0  0  0  0  0  0  0  0  0  0
    0.4970   -0.0960   -0.1040 N   0  0  0  0  0  0  0  0  0  0  0  0
    0.9370    0.8890   -1.0690 C   0  0  0  0  0  0  0  0  0  0  0  0
    2.3940    1.2560   -0.8370 C   0  0  0  0  0  0  0  0  0  0  0  0
    3.0330    0.0970   -0.4150 O   0  0  0  0  0  0  0  0  0  0  0  0
    2.7260   -0.1160    0.9100 C   0  0  0  0  0  0  0  0  0  0  0  0
    1.2650   -0.5690    1.0130 C   0  0  0  0  0  0  0  0  0  0  0  0
  1  2  2  0
  2  3  1  0
  2  4  1  0
  4  5  2  0
  4  6  1  0
  6  7  1  0
  6 11  1  0
  7  8  1  0
  8  9  1  0
  9 10  1  0
 10 11  1  0
M  END
