
     RDKit          3D

 11 12  0  0  0  0  0  0  0  0999 V2000
    2.5760   -0.0980    1.4500 C   0  0  0  0  0  0  0  0  0  0  0  0
    2.9030   -0.6960    0.2480 C   0  0  0  0  0  0  0  0  0  0  0  0
    1.9920   -0.2860   -0.6600 N   0  0  0  0  0  0  0  0  0  0  0  0
    1.1090    0.5410   -0.0800 C   0  0  0  0  0  0  0  0  0  0  0  0
   -0.0500    1.2160   -0.7120 C   0  0  0  0  0  0  0  0  0  0  0  0
   -1.2190    0.2870   -0.5620 C   0  0  0  0  0  0  0  0  0  0  0  0
   -2.0660    0.3110    0.5150 C   0  0  0  0  0  0  0  0  0  0  0  0
   -3.0010   -0.6660    0.3130 C   0  0  0  0  0  0  0  0  0  0  0  0
   -2.6690   -1.2400   -0.8930 C   0  0  0  0  0  0  0  0  0  0  0  0
   -1.6230   -0.6510   -1.3650 O   0  0  0  0  0  0  0  0  0  0  0  0
    1.4510    0.6790    1.2500 C   0  0  0  0  0  0  0  0  0  0  0  0
  1  2  2  0
  1 11  1  0
  2  3  1  0
  3  4  1  0
  4  5  1  0
  4 11  2  0
  5  6  1  0
  6  7  2  0
  6 10  1  0
  7  8  1  0
  8  9  2  0
  9 10  1  0
M  END
