
     RDKit          3D

 11 12  0  0  0  0  0  0  0  0999 V2000
    3.3900    0.6560    0.1890 C   0  0  0  0  0  0  0  0  0  0  0  0
    3.1590   -0.2010   -0.8760 C   0  0  0  0  0  0  0  0  0  0  0  0
    1.8440   -0.4670   -0.9890 N   0  0  0  0  0  0  0  0  0  0  0  0
    1.2160    0.2020   -0.0170 C   0  0  0  0  0  0  0  0  0  0  0  0
   -0.2290    0.2080    0.2430 C   0  0  1  0  0  0  0  0  0  0  0  0
   -1.0030    0.7660   -0.9590 C   0  0  0  0  0  0  0  0  0  0  0  0
   -2.4590    0.7910   -0.5400 C   0  0  0  0  0  0  0  0  0  0  0  0
   -2.6680    0.2780    0.7210 O   0  0  0  0  0  0  0  0  0  0  0  0
   -2.2280   -1.0190    0.8830 C   0  0  0  0  0  0  0  0  0  0  0  0
   -0.7910   -1.2030    0.4180 C   0  0  0  0  0  0  0  0  0  0  0  0
    2.1380    0.9030    0.7250 C   0  0  0  0  0  0  0  0  0  0  0  0
  1  2  2  0
  1 11  1  0
  2  3  1  0
  3  4  1  0
  5  4  1  6
  4 11  2  0
  5  6  1  0
  5 10  1  0
  6  7  1  0
  7  8  1  0
  8  9  1  0
  9 10  1  0
M  END
