
     RDKit          3D

 11 11  0  0  0  0  0  0  0  0999 V2000
    2.9700    1.1950   -0.5870 C   0  0  0  0  0  0  0  0  0  0  0  0
    2.8240   -0.0830   -0.3130 C   0  0  0  0  0  0  0  0  0  0  0  0
    1.5210   -0.6980   -0.0740 C   0  0  0  0  0  0  0  0  0  0  0  0
    1.4590   -1.9900    0.1960 C   0  0  0  0  0  0  0  0  0  0  0  0
    0.3070    0.0390   -0.1210 N   0  0  0  0  0  0  0  0  0  0  0  0
   -0.0600    0.7070    1.0740 C   0  0  0  0  0  0  0  0  0  0  0  0
   -1.5100    0.8870    1.3210 C   0  0  0  0  0  0  0  0  0  0  0  0
   -2.4150   -0.2070    0.9250 C   0  0  0  0  0  0  0  0  0  0  0  0
   -1.9090   -1.0860   -0.0180 O   0  0  0  0  0  0  0  0  0  0  0  0
   -1.8470   -0.3660   -1.2290 C   0  0  0  0  0  0  0  0  0  0  0  0
   -0.3680   -0.0090   -1.3950 C   0  0  0  0  0  0  0  0  0  0  0  0
  1  2  2  0
  2  3  1  0
  3  4  2  0
  3  5  1  0
  5  6  1  0
  5 11  1  0
  6  7  1  0
  7  8  1  0
  8  9  1  0
  9 10  1  0
 10 11  1  0
M  END
