
     RDKit          3D

 17 16  0  0  0  0  0  0  0  0999 V2000
    4.5390   -1.4630    0.4570 N   0  0  0  0  0  0  0  0  0  0  0  0
    4.4480   -0.1790   -0.1830 C   0  0  1  0  0  0  0  0  0  0  0  0
    5.3790   -0.0880   -1.2300 O   0  0  0  0  0  0  0  0  0  0  0  0
    3.1810    0.0610   -0.6870 O   0  0  0  0  0  0  0  0  0  0  0  0
    2.6010    1.2000   -0.1180 C   0  0  0  0  0  0  0  0  0  0  0  0
    1.2320    1.3910   -0.7160 C   0  0  0  0  0  0  0  0  0  0  0  0
    0.3960    0.3080   -0.4820 O   0  0  0  0  0  0  0  0  0  0  0  0
   -0.8310    0.6060   -1.0810 C   0  0  0  0  0  0  0  0  0  0  0  0
   -1.8080   -0.3730   -0.9510 O   0  0  0  0  0  0  0  0  0  0  0  0
   -2.3180   -0.8650    0.2420 C   0  0  0  0  0  0  0  0  0  0  0  0
   -3.2200   -0.1960    0.9810 C   0  0  0  0  0  0  0  0  0  0  0  0
   -3.7870    1.1170    0.6370 C   0  0  0  0  0  0  0  0  0  0  0  0
   -3.4360    2.0870    1.6810 N   0  0  0  0  0  0  0  0  0  0  0  0
   -1.8420   -2.1640    0.6970 C   0  0  0  0  0  0  0  0  0  0  0  0
   -2.3300   -2.6540    1.9010 O   0  0  0  0  0  0  0  0  0  0  0  0
   -0.9800   -2.8510   -0.0070 C   0  0  0  0  0  0  0  0  0  0  0  0
   -0.4240   -2.4780   -1.2140 O   0  0  0  0  0  0  0  0  0  0  0  0
  2  1  1  6
  2  3  1  0
  2  4  1  0
  4  5  1  0
  5  6  1  0
  6  7  1  0
  7  8  1  0
  8  9  1  0
  9 10  1  0
 10 11  2  3
 10 14  1  0
 11 12  1  0
 12 13  1  0
 14 15  1  0
 14 16  2  3
 16 17  1  0
M  CHG  1  13   1
M  END
