
     RDKit          3D

 18 19  0  0  0  0  0  0  0  0999 V2000
    5.7100   -0.6140   -0.2610 C   0  0  0  0  0  0  0  0  0  0  0  0
    4.4710   -0.2550   -0.0280 C   0  0  0  0  0  0  0  0  0  0  0  0
    3.3290   -1.0910    0.3040 C   0  0  0  0  0  0  0  0  0  0  0  0
    2.2030   -0.4140    0.0760 C   0  0  0  0  0  0  0  0  0  0  0  0
    0.8410   -0.9490    0.3010 C   0  0  0  0  0  0  0  0  0  0  0  0
    0.7440   -2.1110    0.7330 O   0  0  0  0  0  0  0  0  0  0  0  0
   -0.2720   -0.1640    0.0330 N   0  0  0  0  0  0  0  0  0  0  0  0
   -1.6200   -0.5290    0.1950 C   0  0  0  0  0  0  0  0  0  0  0  0
   -2.0270   -1.7350    0.6490 C   0  0  0  0  0  0  0  0  0  0  0  0
   -3.3880   -2.0570    0.7960 C   0  0  0  0  0  0  0  0  0  0  0  0
   -4.3530   -1.1490    0.4790 C   0  0  0  0  0  0  0  0  0  0  0  0
   -6.0500   -1.5520    0.6620 Cl  0  0  0  0  0  0  0  0  0  0  0  0
   -3.9590    0.0800    0.0160 C   0  0  0  0  0  0  0  0  0  0  0  0
   -2.6310    0.3900   -0.1250 C   0  0  0  0  0  0  0  0  0  0  0  0
   -2.2300    1.6430   -0.5970 O   0  0  0  0  0  0  0  0  0  0  0  0
   -3.2130    2.5920   -0.9280 C   0  0  0  0  0  0  0  0  0  0  0  0
    2.5500    0.8690   -0.4120 N   0  0  0  0  0  0  0  0  0  0  0  0
    3.9270    1.1220   -0.0470 C   0  0  0  0  0  0  0  0  0  0  0  0
  1  2  2  0
  2  3  1  0
  2 18  1  0
  3  4  2  0
  4  5  1  0
  4 17  1  0
  5  6  2  0
  5  7  1  0
  7  8  1  0
  8  9  2  0
  8 14  1  0
  9 10  1  0
 10 11  2  0
 11 12  1  0
 11 13  1  0
 13 14  2  0
 14 15  1  0
 15 16  1  0
 17 18  1  0
M  END
