
     RDKit          3D

 18 19  0  0  0  0  0  0  0  0999 V2000
   -3.6490   -2.2820   -0.1520 C   0  0  0  0  0  0  0  0  0  0  0  0
   -3.6840   -0.9840   -0.0090 C   0  0  0  0  0  0  0  0  0  0  0  0
   -4.9540   -0.3790    0.0920 O   0  0  0  0  0  0  0  0  0  0  0  0
   -5.0820    0.9800    0.2450 C   0  0  0  0  0  0  0  0  0  0  0  0
   -4.0210    1.7540    0.3000 C   0  0  0  0  0  0  0  0  0  0  0  0
   -2.6990    1.1490    0.1970 C   0  0  0  0  0  0  0  0  0  0  0  0
   -2.4610   -0.1400    0.0490 C   0  0  0  0  0  0  0  0  0  0  0  0
   -1.2050   -0.7510   -0.0520 N   0  0  0  0  0  0  0  0  0  0  0  0
    0.0410   -0.0810   -0.0130 C   0  0  0  0  0  0  0  0  0  0  0  0
    0.0750    1.1600    0.1220 O   0  0  0  0  0  0  0  0  0  0  0  0
    1.2570   -0.8220   -0.1280 N   0  0  0  0  0  0  0  0  0  0  0  0
    2.5440   -0.2620   -0.0920 C   0  0  0  0  0  0  0  0  0  0  0  0
    2.8650    1.0180    0.2760 C   0  0  0  0  0  0  0  0  0  0  0  0
    4.1700    1.5290    0.2780 C   0  0  0  0  0  0  0  0  0  0  0  0
    5.2090    0.7180   -0.1070 C   0  0  0  0  0  0  0  0  0  0  0  0
    6.8580    1.2980   -0.1260 Cl  0  0  0  0  0  0  0  0  0  0  0  0
    4.9110   -0.5800   -0.4830 C   0  0  0  0  0  0  0  0  0  0  0  0
    3.6390   -1.0640   -0.4810 C   0  0  0  0  0  0  0  0  0  0  0  0
  1  2  2  0
  2  3  1  0
  2  7  1  0
  3  4  1  0
  4  5  2  0
  5  6  1  0
  6  7  2  0
  7  8  1  0
  8  9  1  0
  9 10  2  0
  9 11  1  0
 11 12  1  0
 12 13  2  0
 12 18  1  0
 13 14  1  0
 14 15  2  0
 15 16  1  0
 15 17  1  0
 17 18  2  0
M  END
