
     RDKit          3D

 18 19  0  0  0  0  0  0  0  0999 V2000
   -4.4070   -0.8820    1.7580 C   0  0  0  0  0  0  0  0  0  0  0  0
   -3.1220   -0.6140    1.2590 O   0  0  0  0  0  0  0  0  0  0  0  0
   -2.9370   -0.0300   -0.0060 C   0  0  0  0  0  0  0  0  0  0  0  0
   -4.0130    0.2940   -0.7900 C   0  0  0  0  0  0  0  0  0  0  0  0
   -3.8400    0.8660   -2.0290 C   0  0  0  0  0  0  0  0  0  0  0  0
   -2.5460    1.0870   -2.4250 C   0  0  0  0  0  0  0  0  0  0  0  0
   -1.4410    0.7550   -1.6220 C   0  0  0  0  0  0  0  0  0  0  0  0
   -1.6010    0.1850   -0.3870 C   0  0  0  0  0  0  0  0  0  0  0  0
   -0.5590   -0.1840    0.4930 N   0  0  0  0  0  0  0  0  0  0  0  0
    0.8060   -0.0170    0.2200 C   0  0  0  0  0  0  0  0  0  0  0  0
    1.2440    0.4800   -0.8390 O   0  0  0  0  0  0  0  0  0  0  0  0
    1.8230   -0.4190    1.1710 N   0  0  0  0  0  0  0  0  0  0  0  0
    3.2240   -0.2380    0.8680 C   0  0  0  0  0  0  0  0  0  0  0  0
    4.0920    0.4750    1.5380 C   0  0  0  0  0  0  0  0  0  0  0  0
    5.4020    0.3880    0.8900 C   0  0  0  0  0  0  0  0  0  0  0  0
    5.1800   -0.4890   -0.2740 C   0  0  0  0  0  0  0  0  0  0  0  0
    3.9270   -0.8290   -0.2570 C   0  0  0  0  0  0  0  0  0  0  0  0
    3.1970   -1.8850   -1.4710 Cl  0  0  0  0  0  0  0  0  0  0  0  0
  1  2  1  0
  2  3  1  0
  3  4  2  0
  3  8  1  0
  4  5  1  0
  5  6  2  0
  6  7  1  0
  7  8  2  0
  8  9  1  0
  9 10  1  0
 10 11  2  0
 10 12  1  0
 12 13  1  0
 13 14  2  0
 13 17  1  0
 14 15  1  0
 15 16  1  0
 16 17  2  0
 17 18  1  0
M  END
