
     RDKit          3D

 24 26  0  0  0  0  0  0  0  0999 V2000
    6.4210    2.6490   -1.1850 N   0  0  0  0  0  0  0  0  0  0  0  0
    6.2740    1.4030   -0.0020 S   0  0  1  0  0  0  0  0  0  0  0  0
    7.4140    0.4240   -0.2380 O   0  0  0  0  0  0  0  0  0  0  0  0
    6.4180    1.9320    1.3980 O   0  0  0  0  0  0  0  0  0  0  0  0
    4.7630    0.5440   -0.2040 C   0  0  0  0  0  0  0  0  0  0  0  0
    3.6420    0.9500    0.4390 C   0  0  0  0  0  0  0  0  0  0  0  0
    2.4340    0.2410    0.2610 C   0  0  0  0  0  0  0  0  0  0  0  0
    2.3300   -0.8590   -0.5410 C   0  0  0  0  0  0  0  0  0  0  0  0
    1.1280   -1.6320   -0.6960 C   0  0  0  0  0  0  0  0  0  0  0  0
    1.1970   -2.4910   -1.7140 O   0  0  0  0  0  0  0  0  0  0  0  0
   -0.0710   -1.6640   -0.0080 N   0  0  0  0  0  0  0  0  0  0  0  0
   -0.4630   -0.9430    1.1540 C   0  0  0  0  0  0  0  0  0  0  0  0
   -1.3290    0.2020    0.6540 C   0  0  0  0  0  0  0  0  0  0  0  0
   -2.3580   -0.2930   -0.3360 C   0  0  2  0  0  0  0  0  0  0  0  0
   -3.6520    0.3050    0.0680 C   0  0  0  0  0  0  0  0  0  0  0  0
   -4.2230   -0.0340    1.2760 C   0  0  0  0  0  0  0  0  0  0  0  0
   -5.4270    0.5570    1.5930 C   0  0  0  0  0  0  0  0  0  0  0  0
   -6.0460    1.4600    0.7340 C   0  0  0  0  0  0  0  0  0  0  0  0
   -5.4750    1.7980   -0.4720 C   0  0  0  0  0  0  0  0  0  0  0  0
   -4.2700    1.1990   -0.7770 C   0  0  0  0  0  0  0  0  0  0  0  0
   -2.4730   -1.7860   -0.4370 C   0  0  0  0  0  0  0  0  0  0  0  0
   -1.1640   -2.5190   -0.5420 C   0  0  0  0  0  0  0  0  0  0  0  0
    3.5090   -1.2600   -1.1980 C   0  0  0  0  0  0  0  0  0  0  0  0
    4.6750   -0.5580   -1.0140 C   0  0  0  0  0  0  0  0  0  0  0  0
  2  1  1  6
  2  3  2  0
  2  4  2  0
  2  5  1  0
  5  6  2  0
  5 24  1  0
  6  7  1  0
  7  8  2  0
  8  9  1  0
  8 23  1  0
  9 10  2  0
  9 11  1  0
 11 12  1  0
 11 22  1  0
 12 13  1  0
 13 14  1  0
 14 15  1  1
 14 21  1  0
 15 16  2  0
 15 20  1  0
 16 17  1  0
 17 18  2  0
 18 19  1  0
 19 20  2  0
 21 22  1  0
 23 24  2  0
M  END
