
     RDKit          3D

 25 27  0  0  0  0  0  0  0  0999 V2000
   -6.6740   -1.9920    0.3540 C   0  0  0  0  0  0  0  0  0  0  0  0
   -5.2220   -2.2340    0.2430 C   0  0  0  0  0  0  0  0  0  0  0  0
   -4.7740   -3.3990    0.1880 O   0  0  0  0  0  0  0  0  0  0  0  0
   -4.2840   -1.1100    0.1950 C   0  0  0  0  0  0  0  0  0  0  0  0
   -4.7560    0.1890    0.2530 C   0  0  0  0  0  0  0  0  0  0  0  0
   -3.9260    1.2780    0.2130 C   0  0  0  0  0  0  0  0  0  0  0  0
   -4.4630    2.6580    0.2780 C   0  0  0  0  0  0  0  0  0  0  0  0
   -2.5430    1.0640    0.1080 C   0  0  0  0  0  0  0  0  0  0  0  0
   -2.0530   -0.2120    0.0480 C   0  0  0  0  0  0  0  0  0  0  0  0
   -0.6700   -0.4820   -0.0820 N   0  0  0  0  0  0  0  0  0  0  0  0
    0.2980    0.4290   -0.5160 C   0  0  0  0  0  0  0  0  0  0  0  0
    0.0110    1.5900   -0.8410 O   0  0  0  0  0  0  0  0  0  0  0  0
    1.7100   -0.0540   -0.5740 C   0  0  1  0  0  0  0  0  0  0  0  0
    2.8060    1.2940   -1.1660 S   0  0  0  0  0  0  0  0  0  0  0  0
    4.4550    0.7890   -0.7200 C   0  0  0  0  0  0  0  0  0  0  0  0
    5.5360    1.2800   -1.3940 C   0  0  0  0  0  0  0  0  0  0  0  0
    6.8110    0.8850   -1.0470 C   0  0  0  0  0  0  0  0  0  0  0  0
    6.9700   -0.0130   -0.0090 C   0  0  0  0  0  0  0  0  0  0  0  0
    8.2400   -0.4370    0.3730 O   0  0  0  0  0  0  0  0  0  0  0  0
    5.9040   -0.5240    0.6880 C   0  0  0  0  0  0  0  0  0  0  0  0
    4.6210   -0.1010    0.3090 C   0  0  0  0  0  0  0  0  0  0  0  0
    3.5360   -0.6430    1.0450 N   0  0  0  0  0  0  0  0  0  0  0  0
    2.1770   -0.3320    0.8080 C   0  0  0  0  0  0  0  0  0  0  0  0
    1.3500   -0.2910    1.7820 O   0  0  0  0  0  0  0  0  0  0  0  0
   -2.9320   -1.2880    0.0920 C   0  0  0  0  0  0  0  0  0  0  0  0
  1  2  1  0
  2  3  2  0
  2  4  1  0
  4  5  2  0
  4 25  1  0
  5  6  1  0
  6  7  1  0
  6  8  2  0
  8  9  1  0
  9 10  1  0
  9 25  2  0
 10 11  1  0
 11 12  2  0
 13 11  1  1
 13 14  1  0
 13 23  1  0
 14 15  1  0
 15 16  2  0
 15 21  1  0
 16 17  1  0
 17 18  2  0
 18 19  1  0
 18 20  1  0
 20 21  2  0
 21 22  1  0
 22 23  1  0
 23 24  2  0
M  END
