
     RDKit          3D

 25 27  0  0  0  0  0  0  0  0999 V2000
    6.6310    2.6670   -0.9790 N   0  0  0  0  0  0  0  0  0  0  0  0
    6.7110    1.1130   -0.2800 S   0  0  1  0  0  0  0  0  0  0  0  0
    7.5220    0.2050   -1.1980 O   0  0  0  0  0  0  0  0  0  0  0  0
    7.3470    1.2000    1.0670 O   0  0  0  0  0  0  0  0  0  0  0  0
    5.1150    0.4210   -0.1560 C   0  0  0  0  0  0  0  0  0  0  0  0
    4.8150   -0.8130   -0.7030 C   0  0  0  0  0  0  0  0  0  0  0  0
    3.5440   -1.3380   -0.5650 C   0  0  0  0  0  0  0  0  0  0  0  0
    2.5680   -0.6160    0.1270 C   0  0  0  0  0  0  0  0  0  0  0  0
    1.3210   -1.2760    0.4100 C   0  0  0  0  0  0  0  0  0  0  0  0
    1.4050   -2.5880    0.3710 O   0  0  0  0  0  0  0  0  0  0  0  0
    0.0860   -0.7070    0.7120 N   0  0  0  0  0  0  0  0  0  0  0  0
   -0.3070    0.6650    0.6490 C   0  0  0  0  0  0  0  0  0  0  0  0
   -1.7470    0.8600    0.1850 C   0  0  0  0  0  0  0  0  0  0  0  0
   -2.4110   -0.3640   -0.3530 C   0  0  2  0  0  0  0  0  0  0  0  0
   -2.0680   -0.5100   -1.7170 O   0  0  0  0  0  0  0  0  0  0  0  0
   -3.9020   -0.1790   -0.2600 C   0  0  0  0  0  0  0  0  0  0  0  0
   -4.4850    1.0760   -0.1540 C   0  0  0  0  0  0  0  0  0  0  0  0
   -5.8440    1.2320   -0.0460 C   0  0  0  0  0  0  0  0  0  0  0  0
   -6.6950    0.1360   -0.0360 C   0  0  0  0  0  0  0  0  0  0  0  0
   -6.1500   -1.1190   -0.1400 C   0  0  0  0  0  0  0  0  0  0  0  0
   -4.7650   -1.2450   -0.2500 C   0  0  0  0  0  0  0  0  0  0  0  0
   -2.0940   -1.6420    0.3670 C   0  0  0  0  0  0  0  0  0  0  0  0
   -0.9380   -1.6110    1.2860 C   0  0  0  0  0  0  0  0  0  0  0  0
    2.8640    0.6200    0.6710 C   0  0  0  0  0  0  0  0  0  0  0  0
    4.1540    1.1160    0.5140 C   0  0  0  0  0  0  0  0  0  0  0  0
  2  1  1  6
  2  3  2  0
  2  4  2  0
  2  5  1  0
  5  6  2  0
  5 25  1  0
  6  7  1  0
  7  8  2  0
  8  9  1  0
  8 24  1  0
  9 10  2  0
  9 11  1  0
 11 12  1  0
 11 23  1  0
 12 13  1  0
 13 14  1  0
 14 15  1  6
 14 16  1  0
 14 22  1  0
 16 17  2  0
 16 21  1  0
 17 18  1  0
 18 19  2  0
 19 20  1  0
 20 21  2  0
 22 23  1  0
 24 25  2  0
M  END
