
     RDKit          3D

 11 12  0  0  0  0  0  0  0  0999 V2000
   -2.9580    0.7370   -0.1540 C   0  0  0  0  0  0  0  0  0  0  0  0
   -2.6650    0.5030    1.1920 C   0  0  0  0  0  0  0  0  0  0  0  0
   -1.5520   -0.2610    1.2630 N   0  0  0  0  0  0  0  0  0  0  0  0
   -1.1130   -0.5310    0.0260 C   0  0  0  0  0  0  0  0  0  0  0  0
    0.0840   -1.3420   -0.3110 C   0  0  0  0  0  0  0  0  0  0  0  0
    1.2640   -0.4700   -0.3960 C   0  0  0  0  0  0  0  0  0  0  0  0
    2.1230   -0.1400    0.6370 C   0  0  0  0  0  0  0  0  0  0  0  0
    3.0690    0.6950    0.0820 C   0  0  0  0  0  0  0  0  0  0  0  0
    2.7400    0.8340   -1.2660 C   0  0  0  0  0  0  0  0  0  0  0  0
    1.6600    0.1210   -1.4950 O   0  0  0  0  0  0  0  0  0  0  0  0
   -1.9910    0.0920   -0.8600 C   0  0  0  0  0  0  0  0  0  0  0  0
  1  2  2  0
  1 11  1  0
  2  3  1  0
  3  4  1  0
  4  5  1  0
  4 11  2  0
  5  6  1  0
  6  7  2  0
  6 10  1  0
  7  8  1  0
  8  9  2  0
  9 10  1  0
M  END
