
     RDKit          3D

 11 12  0  0  0  0  0  0  0  0999 V2000
   -2.2040    2.6330    0.0750 O   0  0  0  0  0  0  0  0  0  0  0  0
   -1.6040    1.5410    0.2950 C   0  0  0  0  0  0  0  0  0  0  0  0
   -2.3910    0.3050    0.3560 C   0  0  0  0  0  0  0  0  0  0  0  0
   -1.6500   -0.9410    0.5830 C   0  0  0  0  0  0  0  0  0  0  0  0
   -0.6490   -1.3650   -0.4240 C   0  0  0  0  0  0  0  0  0  0  0  0
    0.6420   -0.6430   -0.3630 C   0  0  0  0  0  0  0  0  0  0  0  0
    1.8360   -1.1710   -0.6780 C   0  0  0  0  0  0  0  0  0  0  0  0
    2.8560   -0.1170   -0.4790 C   0  0  0  0  0  0  0  0  0  0  0  0
    2.1190    1.0680   -0.0170 C   0  0  0  0  0  0  0  0  0  0  0  0
    0.8240    0.7400    0.0450 C   0  0  0  0  0  0  0  0  0  0  0  0
   -0.1990    1.6550    0.4590 N   0  0  0  0  0  0  0  0  0  0  0  0
  1  2  2  0
  2  3  1  0
  2 11  1  0
  3  4  1  0
  4  5  1  0
  5  6  1  0
  6  7  2  0
  6 10  1  0
  7  8  1  0
  8  9  1  0
  9 10  2  0
 10 11  1  0
M  END
