
     RDKit          3D

 11 11  0  0  0  0  0  0  0  0999 V2000
    2.4770   -0.0700   -1.6400 C   0  0  0  0  0  0  0  0  0  0  0  0
    2.6840    0.4920   -0.4820 C   0  0  0  0  0  0  0  0  0  0  0  0
    1.5710    0.6320    0.4450 C   0  0  0  0  0  0  0  0  0  0  0  0
    1.7900    1.1990    1.6060 C   0  0  0  0  0  0  0  0  0  0  0  0
    0.2570    0.1670    0.1120 N   0  0  0  0  0  0  0  0  0  0  0  0
   -0.6130    1.1300   -0.5360 C   0  0  0  0  0  0  0  0  0  0  0  0
   -1.4860    0.3540   -1.4950 C   0  0  0  0  0  0  0  0  0  0  0  0
   -2.6300   -0.2470   -0.6930 C   0  0  0  0  0  0  0  0  0  0  0  0
   -2.2650   -1.5070   -0.2490 O   0  0  0  0  0  0  0  0  0  0  0  0
   -1.4120   -1.4900    0.8280 C   0  0  0  0  0  0  0  0  0  0  0  0
    0.0160   -1.1920    0.4800 C   0  0  0  0  0  0  0  0  0  0  0  0
  1  2  2  0
  2  3  1  0
  3  4  2  0
  3  5  1  0
  5  6  1  0
  5 11  1  0
  6  7  1  0
  7  8  1  0
  8  9  1  0
  9 10  1  0
 10 11  1  0
M  END
