
     RDKit          3D

 11 12  0  0  0  0  0  0  0  0999 V2000
    2.9950    0.7900    0.3980 C   0  0  0  0  0  0  0  0  0  0  0  0
    3.3490   -0.3670   -0.2370 C   0  0  0  0  0  0  0  0  0  0  0  0
    2.2150   -1.0100   -0.5550 N   0  0  0  0  0  0  0  0  0  0  0  0
    1.1480   -0.3040   -0.1460 C   0  0  0  0  0  0  0  0  0  0  0  0
   -0.3010   -0.6560   -0.2980 C   0  0  1  0  0  0  0  0  0  0  0  0
   -0.9620   -0.8170    1.0570 C   0  0  0  0  0  0  0  0  0  0  0  0
   -1.9810    0.2600    1.2200 C   0  0  0  0  0  0  0  0  0  0  0  0
   -2.9490    0.2860    0.2460 O   0  0  0  0  0  0  0  0  0  0  0  0
   -2.4760    0.3210   -1.0400 C   0  0  0  0  0  0  0  0  0  0  0  0
   -0.9730    0.4370   -1.0740 C   0  0  0  0  0  0  0  0  0  0  0  0
    1.6210    0.8400    0.4610 C   0  0  0  0  0  0  0  0  0  0  0  0
  1  2  2  0
  1 11  1  0
  2  3  1  0
  3  4  1  0
  5  4  1  1
  4 11  2  0
  5  6  1  0
  5 10  1  0
  6  7  1  0
  7  8  1  0
  8  9  1  0
  9 10  1  0
M  END
