
     RDKit          3D

 11 11  0  0  0  0  0  0  0  0999 V2000
    2.4080    1.7020   -0.2940 C   0  0  0  0  0  0  0  0  0  0  0  0
    2.1990    0.4070   -0.0490 C   0  0  0  0  0  0  0  0  0  0  0  0
    3.0320   -0.2080    1.0200 C   0  0  0  0  0  0  0  0  0  0  0  0
    1.2000   -0.3310   -0.8240 C   0  0  0  0  0  0  0  0  0  0  0  0
    0.1280   -0.9150   -0.0940 N   0  0  0  0  0  0  0  0  0  0  0  0
   -0.6940   -1.6650   -0.9930 C   0  0  0  0  0  0  0  0  0  0  0  0
   -1.9460   -1.0330   -1.4460 C   0  0  0  0  0  0  0  0  0  0  0  0
   -2.5210   -0.1380   -0.6200 O   0  0  0  0  0  0  0  0  0  0  0  0
   -1.7150    0.5940    0.1900 C   0  0  1  0  0  0  0  0  0  0  0  0
   -2.6230    1.0670    1.3430 C   0  0  0  0  0  0  0  0  0  0  0  0
   -0.5600   -0.0810    0.8200 C   0  0  0  0  0  0  0  0  0  0  0  0
  1  2  2  0
  2  3  1  0
  2  4  1  0
  4  5  1  0
  5  6  1  0
  5 11  1  0
  6  7  1  0
  7  8  1  0
  8  9  1  0
  9 10  1  1
  9 11  1  0
M  END
