
     RDKit          3D

 11 11  0  0  0  0  0  0  0  0999 V2000
    3.9330    0.3200    0.0430 C   0  0  0  0  0  0  0  0  0  0  0  0
    2.4990    0.8470    0.0730 C   0  0  0  0  0  0  0  0  0  0  0  0
    1.6270   -0.3010    0.1620 N   0  0  0  0  0  0  0  0  0  0  0  0
    0.2280   -0.1070    0.0730 C   0  0  0  0  0  0  0  0  0  0  0  0
   -0.1710    0.3180   -1.0990 C   0  0  0  0  0  0  0  0  0  0  0  0
   -1.5230    0.6140   -1.5280 C   0  0  0  0  0  0  0  0  0  0  0  0
   -1.6270    1.4530   -2.4570 O   0  0  0  0  0  0  0  0  0  0  0  0
   -2.8260    0.0930   -1.0580 C   0  0  0  0  0  0  0  0  0  0  0  0
   -2.7470    0.0460    0.4750 C   0  0  0  0  0  0  0  0  0  0  0  0
   -1.8260   -1.0630    0.8450 C   0  0  0  0  0  0  0  0  0  0  0  0
   -0.5060   -0.4350    1.3100 C   0  0  0  0  0  0  0  0  0  0  0  0
  1  2  1  0
  2  3  1  0
  3  4  1  0
  4  5  2  0
  4 11  1  0
  5  6  1  0
  6  7  2  0
  6  8  1  0
  8  9  1  0
  9 10  1  0
 10 11  1  0
M  END
