
     RDKit          3D

 21 23  0  0  0  0  0  0  0  0999 V2000
   -3.6160    0.0420   -2.9540 C   0  0  0  0  0  0  0  0  0  0  0  0
   -3.2800    1.2140   -2.2010 O   0  0  0  0  0  0  0  0  0  0  0  0
   -3.4680    1.1320   -0.8290 C   0  0  0  0  0  0  0  0  0  0  0  0
   -4.5710    1.6630   -0.3100 C   0  0  0  0  0  0  0  0  0  0  0  0
   -4.8470    1.6340    1.0320 O   0  0  0  0  0  0  0  0  0  0  0  0
   -4.0030    1.0470    1.9790 C   0  0  0  0  0  0  0  0  0  0  0  0
   -2.8010    0.4780    1.3430 C   0  0  0  0  0  0  0  0  0  0  0  0
   -2.5190    0.4940    0.0760 C   0  0  0  0  0  0  0  0  0  0  0  0
   -1.0510   -0.2100   -0.6370 S   0  0  0  0  0  0  0  0  0  0  0  0
   -0.0750   -0.9220    0.7100 C   0  0  0  0  0  0  0  0  0  0  0  0
    1.1810   -1.5350    0.1770 N   0  0  0  0  0  0  0  0  0  0  0  0
    1.1180   -2.8240   -0.1910 C   0  0  0  0  0  0  0  0  0  0  0  0
    0.1760   -3.6840   -0.1880 O   0  0  0  0  0  0  0  0  0  0  0  0
    2.8300   -3.1730   -0.7680 S   0  0  0  0  0  0  0  0  0  0  0  0
    3.4100   -1.5240   -0.4360 C   0  0  0  0  0  0  0  0  0  0  0  0
    4.6670   -0.9790   -0.6210 C   0  0  0  0  0  0  0  0  0  0  0  0
    4.8790    0.3460   -0.2830 C   0  0  0  0  0  0  0  0  0  0  0  0
    6.1490    0.9230   -0.4620 N   0  0  0  0  0  0  0  0  0  0  0  0
    3.7900    1.0240    0.2200 C   0  0  0  0  0  0  0  0  0  0  0  0
    2.5550    0.4580    0.3920 C   0  0  0  0  0  0  0  0  0  0  0  0
    2.3190   -0.9050    0.0500 C   0  0  0  0  0  0  0  0  0  0  0  0
  1  2  1  0
  2  3  1  0
  3  4  2  0
  3  8  1  0
  4  5  1  0
  5  6  1  0
  6  7  1  0
  7  8  2  0
  8  9  1  0
  9 10  1  0
 10 11  1  0
 11 12  1  0
 11 21  1  0
 12 13  2  0
 12 14  1  0
 14 15  1  0
 15 16  2  0
 15 21  1  0
 16 17  1  0
 17 18  1  0
 17 19  2  0
 19 20  1  0
 20 21  2  0
M  END
