
     RDKit          3D

 22 23  0  0  0  0  0  0  0  0999 V2000
    5.6210   -0.9990   -0.9440 C   0  0  0  0  0  0  0  0  0  0  0  0
    5.4110   -0.6750    0.5180 C   0  0  0  0  0  0  0  0  0  0  0  0
    4.3040    0.2090    0.6780 O   0  0  0  0  0  0  0  0  0  0  0  0
    3.9290    0.6370    1.9350 C   0  0  0  0  0  0  0  0  0  0  0  0
    4.6190    0.2010    2.9060 O   0  0  0  0  0  0  0  0  0  0  0  0
    2.8260    1.5380    2.2650 C   0  0  0  0  0  0  0  0  0  0  0  0
    1.8630    2.1240    0.8710 S   0  0  0  0  0  0  0  0  0  0  0  0
    0.9770    0.7830    0.1340 C   0  0  0  0  0  0  0  0  0  0  0  0
   -0.2700    0.4230    0.5910 C   0  0  0  0  0  0  0  0  0  0  0  0
   -0.9950   -0.6090    0.0360 C   0  0  0  0  0  0  0  0  0  0  0  0
   -2.6210   -1.0060    0.7010 S   0  0  0  0  0  0  0  0  0  0  0  0
   -3.8780   -0.0500   -0.1710 C   0  0  0  0  0  0  0  0  0  0  0  0
   -3.5580    0.7810   -1.1270 C   0  0  0  0  0  0  0  0  0  0  0  0
   -4.5460    1.5730   -1.8590 C   0  0  0  0  0  0  0  0  0  0  0  0
   -5.8380    1.3250   -1.4010 O   0  0  0  0  0  0  0  0  0  0  0  0
   -6.1350    0.4620   -0.4140 N   0  0  0  0  0  0  0  0  0  0  0  0
   -5.2700   -0.2330    0.2260 C   0  0  0  0  0  0  0  0  0  0  0  0
   -5.6470   -1.1830    1.3200 C   0  0  0  0  0  0  0  0  0  0  0  0
   -0.4600   -1.2880   -0.9910 N   0  0  0  0  0  0  0  0  0  0  0  0
    0.7520   -0.9770   -1.4740 C   0  0  0  0  0  0  0  0  0  0  0  0
    1.2500   -1.6300   -2.4510 O   0  0  0  0  0  0  0  0  0  0  0  0
    1.4960    0.0700   -0.9170 C   0  0  0  0  0  0  0  0  0  0  0  0
  1  2  1  0
  2  3  1  0
  3  4  1  0
  4  5  2  0
  4  6  1  0
  6  7  1  0
  7  8  1  0
  8  9  1  0
  8 22  2  0
  9 10  2  0
 10 11  1  0
 10 19  1  0
 11 12  1  0
 12 13  2  0
 12 17  1  0
 13 14  1  0
 14 15  1  0
 15 16  1  0
 16 17  2  0
 17 18  1  0
 19 20  1  0
 20 21  2  0
 20 22  1  0
M  END
