
     RDKit          3D

 23 25  0  0  0  0  0  0  0  0999 V2000
   -1.9320    3.3580    0.4760 C   0  0  0  0  0  0  0  0  0  0  0  0
   -2.3580    1.9280    0.3170 C   0  0  0  0  0  0  0  0  0  0  0  0
   -3.5120    1.4020    0.8260 N   0  0  0  0  0  0  0  0  0  0  0  0
   -3.5910    0.1120    0.5090 C   0  0  0  0  0  0  0  0  0  0  0  0
   -2.4780   -0.2050   -0.2120 C   0  0  0  0  0  0  0  0  0  0  0  0
   -1.6960    0.9360   -0.3380 C   0  0  0  0  0  0  0  0  0  0  0  0
   -0.4300    0.9800   -1.0510 C   0  0  0  0  0  0  0  0  0  0  0  0
    0.0080   -0.1000   -1.6040 O   0  0  0  0  0  0  0  0  0  0  0  0
    0.4310    2.1550   -1.2150 C   0  0  0  0  0  0  0  0  0  0  0  0
    1.5230    2.2020   -0.1680 C   0  0  0  0  0  0  0  0  0  0  0  0
    2.3520    1.0260   -0.3060 N   0  0  0  0  0  0  0  0  0  0  0  0
    3.4680    0.7780    0.5510 C   0  0  0  0  0  0  0  0  0  0  0  0
    3.7310    1.6060    1.4460 O   0  0  0  0  0  0  0  0  0  0  0  0
    4.2820   -0.4290    0.3730 C   0  0  0  0  0  0  0  0  0  0  0  0
    4.1280   -1.3870   -0.5230 C   0  0  0  0  0  0  0  0  0  0  0  0
    5.1810   -2.3920   -0.3160 C   0  0  0  0  0  0  0  0  0  0  0  0
    5.9680   -1.8890    0.8210 C   0  0  0  0  0  0  0  0  0  0  0  0
    5.4330   -0.7550    1.2050 C   0  0  0  0  0  0  0  0  0  0  0  0
    5.9340   -0.0270    2.2480 F   0  0  0  0  0  0  0  0  0  0  0  0
   -2.2820   -1.5750   -0.7040 C   0  0  0  0  0  0  0  0  0  0  0  0
   -2.8820   -2.5280    0.3350 C   0  0  0  0  0  0  0  0  0  0  0  0
   -4.3630   -2.2490    0.4200 C   0  0  0  0  0  0  0  0  0  0  0  0
   -4.6750   -0.8620    0.8490 C   0  0  0  0  0  0  0  0  0  0  0  0
  1  2  1  0
  2  3  1  0
  2  6  2  0
  3  4  1  0
  4  5  2  0
  4 23  1  0
  5  6  1  0
  5 20  1  0
  6  7  1  0
  7  8  2  0
  7  9  1  0
  9 10  1  0
 10 11  1  0
 11 12  1  0
 12 13  2  0
 12 14  1  0
 14 15  2  0
 14 18  1  0
 15 16  1  0
 16 17  1  0
 17 18  2  0
 18 19  1  0
 20 21  1  0
 21 22  1  0
 22 23  1  0
M  END
