
     RDKit          3D

 22 24  0  0  0  0  0  0  0  0999 V2000
    5.6530   -1.5060   -1.1430 C   0  0  0  0  0  0  0  0  0  0  0  0
    4.7400   -0.4300   -0.6630 C   0  0  0  0  0  0  0  0  0  0  0  0
    5.2320    0.8430   -0.4320 C   0  0  0  0  0  0  0  0  0  0  0  0
    4.4190    1.8460    0.0060 C   0  0  0  0  0  0  0  0  0  0  0  0
    3.0730    1.5620    0.2190 C   0  0  0  0  0  0  0  0  0  0  0  0
    2.2530    2.6240    0.6680 N   0  0  0  0  0  0  0  0  0  0  0  0
    2.5610    0.3060   -0.0030 C   0  0  0  0  0  0  0  0  0  0  0  0
    1.1800    0.0930    0.2410 N   0  0  0  0  0  0  0  0  0  0  0  0
    0.7120    0.2580    1.6020 C   0  0  0  0  0  0  0  0  0  0  0  0
   -0.7750    0.6220    1.5090 C   0  0  0  0  0  0  0  0  0  0  0  0
   -0.9170    1.3560    0.3410 O   0  0  0  0  0  0  0  0  0  0  0  0
   -1.0150    0.4600   -0.7550 C   0  0  2  0  0  0  0  0  0  0  0  0
   -2.2480   -0.2820   -0.5780 C   0  0  0  0  0  0  0  0  0  0  0  0
   -2.4390   -1.6200   -0.7270 C   0  0  0  0  0  0  0  0  0  0  0  0
   -3.6650   -2.2350   -0.5320 C   0  0  0  0  0  0  0  0  0  0  0  0
   -4.7480   -1.4810   -0.1730 C   0  0  0  0  0  0  0  0  0  0  0  0
   -5.9760   -2.0710    0.0260 O   0  0  0  0  0  0  0  0  0  0  0  0
   -4.6050   -0.1240   -0.0100 C   0  0  0  0  0  0  0  0  0  0  0  0
   -5.8060    0.6970    0.3860 C   0  0  0  0  0  0  0  0  0  0  0  0
   -3.3770    0.4660   -0.2090 C   0  0  0  0  0  0  0  0  0  0  0  0
    0.2440   -0.2810   -0.8370 C   0  0  0  0  0  0  0  0  0  0  0  0
    3.4030   -0.6920   -0.4470 C   0  0  0  0  0  0  0  0  0  0  0  0
  1  2  1  0
  2  3  2  0
  2 22  1  0
  3  4  1  0
  4  5  2  0
  5  6  1  0
  5  7  1  0
  7  8  1  0
  7 22  2  0
  8  9  1  0
  8 21  1  0
  9 10  1  0
 10 11  1  0
 11 12  1  0
 12 13  1  1
 12 21  1  0
 13 14  2  0
 13 20  1  0
 14 15  1  0
 15 16  2  0
 16 17  1  0
 16 18  1  0
 18 19  1  0
 18 20  2  0
M  END
