
     RDKit          3D

 23 25  0  0  0  0  0  0  0  0999 V2000
    7.4490    1.1750    1.0370 N   0  0  0  0  0  0  0  0  0  0  0  0
    6.0920    0.8450    0.8290 C   0  0  0  0  0  0  0  0  0  0  0  0
    5.7280   -0.3390    0.2360 C   0  0  0  0  0  0  0  0  0  0  0  0
    4.3980   -0.6970    0.0150 C   0  0  0  0  0  0  0  0  0  0  0  0
    3.3780    0.1400    0.3920 C   0  0  0  0  0  0  0  0  0  0  0  0
    1.9560   -0.1460    0.2030 C   0  0  0  0  0  0  0  0  0  0  0  0
    1.5870   -1.2570   -0.3550 C   0  0  0  0  0  0  0  0  0  0  0  0
    0.1750   -1.6480   -0.5940 C   0  0  0  0  0  0  0  0  0  0  0  0
   -0.0410   -2.7560   -1.1460 O   0  0  0  0  0  0  0  0  0  0  0  0
   -0.9010   -0.8230   -0.2250 N   0  0  0  0  0  0  0  0  0  0  0  0
   -2.2680   -1.1190   -0.4140 C   0  0  0  0  0  0  0  0  0  0  0  0
   -2.7570   -2.3070   -0.8970 C   0  0  0  0  0  0  0  0  0  0  0  0
   -4.1400   -2.5140   -1.0190 C   0  0  0  0  0  0  0  0  0  0  0  0
   -5.0060   -1.5190   -0.6510 C   0  0  0  0  0  0  0  0  0  0  0  0
   -4.5440   -0.3200   -0.1640 C   0  0  0  0  0  0  0  0  0  0  0  0
   -3.1920   -0.1180   -0.0460 C   0  0  0  0  0  0  0  0  0  0  0  0
   -2.7440    1.2020    0.4710 C   0  0  0  0  0  0  0  0  0  0  0  0
   -3.8670    2.1920    0.1250 C   0  0  0  0  0  0  0  0  0  0  0  0
   -5.0450    1.8380    0.7200 O   0  0  0  0  0  0  0  0  0  0  0  0
   -5.5880    0.6680    0.2110 C   0  0  0  0  0  0  0  0  0  0  0  0
    3.7540    1.3450    0.9960 C   0  0  0  0  0  0  0  0  0  0  0  0
    2.7370    2.1860    1.3740 F   0  0  0  0  0  0  0  0  0  0  0  0
    5.0690    1.6870    1.2080 C   0  0  0  0  0  0  0  0  0  0  0  0
  1  2  1  0
  2  3  2  0
  2 23  1  0
  3  4  1  0
  4  5  2  0
  5  6  1  0
  5 21  1  0
  6  7  2  3
  7  8  1  0
  8  9  2  0
  8 10  1  0
 10 11  1  0
 11 12  2  0
 11 16  1  0
 12 13  1  0
 13 14  2  0
 14 15  1  0
 15 16  2  0
 15 20  1  0
 16 17  1  0
 17 18  1  0
 18 19  1  0
 19 20  1  0
 21 22  1  0
 21 23  2  0
M  END
