
     RDKit          3D

 20 21  0  0  0  0  0  0  0  0999 V2000
    4.8030    2.3230    0.9190 N   0  0  0  0  0  0  0  0  0  0  0  0
    3.8700    1.7000    0.0540 C   0  0  0  0  0  0  0  0  0  0  0  0
    3.2360    2.4260   -0.7950 N   0  0  0  0  0  0  0  0  0  0  0  0
    3.6360    0.3250    0.1260 N   0  0  0  0  0  0  0  0  0  0  0  0
    2.3370   -0.2120    0.1400 C   0  0  0  0  0  0  0  0  0  0  0  0
    1.1590    0.4710    0.2040 C   0  0  0  0  0  0  0  0  0  0  0  0
   -0.0810   -0.1350    0.2090 C   0  0  0  0  0  0  0  0  0  0  0  0
   -1.3510    0.6460    0.2590 C   0  0  1  0  0  0  0  0  0  0  0  0
   -1.9580    0.4420   -1.1460 C   0  0  0  0  0  0  0  0  0  0  0  0
   -3.2590    1.1810   -1.2090 C   0  0  0  0  0  0  0  0  0  0  0  0
   -4.2110    0.5660   -0.3180 N   0  0  0  0  0  0  0  0  0  0  0  0
   -3.6310   -0.3840    0.5850 C   0  0  0  0  0  0  0  0  0  0  0  0
   -2.3500    0.1030    1.2310 C   0  0  0  0  0  0  0  0  0  0  0  0
   -0.1550   -1.5080    0.1490 C   0  0  0  0  0  0  0  0  0  0  0  0
    1.0120   -2.2590    0.0830 C   0  0  0  0  0  0  0  0  0  0  0  0
    0.9610   -3.7470    0.0270 C   0  0  2  0  0  0  0  0  0  0  0  0
   -0.3570   -4.1510    0.0990 F   0  0  0  0  0  0  0  0  0  0  0  0
    1.6900   -4.1880    1.1380 F   0  0  0  0  0  0  0  0  0  0  0  0
    1.6140   -4.1710   -1.0980 F   0  0  0  0  0  0  0  0  0  0  0  0
    2.2210   -1.6090    0.0790 C   0  0  0  0  0  0  0  0  0  0  0  0
  1  2  1  0
  2  3  2  0
  2  4  1  0
  4  5  1  0
  5  6  2  0
  5 20  1  0
  6  7  1  0
  8  7  1  6
  7 14  2  0
  8  9  1  0
  8 13  1  0
  9 10  1  0
 10 11  1  0
 11 12  1  0
 12 13  1  0
 14 15  1  0
 15 16  1  0
 15 20  2  0
 16 17  1  1
 16 18  1  0
 16 19  1  0
M  CHG  2   3   1  11   1
M  END
