
     RDKit          3D

 23 25  0  0  0  0  0  0  0  0999 V2000
    5.5530   -1.2600   -2.4140 C   0  0  0  0  0  0  0  0  0  0  0  0
    4.8340   -0.4520   -1.3790 C   0  0  0  0  0  0  0  0  0  0  0  0
    3.5420   -0.7780   -1.0140 C   0  0  0  0  0  0  0  0  0  0  0  0
    2.8690   -0.0410   -0.0610 C   0  0  0  0  0  0  0  0  0  0  0  0
    1.5650   -0.4030    0.2790 C   0  0  0  0  0  0  0  0  0  0  0  0
    0.9630   -1.5850   -0.3840 C   0  0  0  0  0  0  0  0  0  0  0  0
   -0.3970   -1.7930    0.0430 N   0  0  0  0  0  0  0  0  0  0  0  0
   -1.4460   -0.9030   -0.2300 C   0  0  0  0  0  0  0  0  0  0  0  0
   -1.1870    0.1440   -0.9040 O   0  0  0  0  0  0  0  0  0  0  0  0
   -2.7930   -1.1030    0.2080 N   0  0  0  0  0  0  0  0  0  0  0  0
   -3.7810   -0.1340   -0.1250 C   0  0  1  0  0  0  0  0  0  0  0  0
   -4.9530   -0.7120   -0.9120 C   0  0  0  0  0  0  0  0  0  0  0  0
   -5.8700    0.5180   -0.9370 C   0  0  0  0  0  0  0  0  0  0  0  0
   -5.7100    1.1240    0.4520 C   0  0  0  0  0  0  0  0  0  0  0  0
   -4.5120    0.4370    1.0750 C   0  0  0  0  0  0  0  0  0  0  0  0
    0.9210    0.3410    1.2240 C   0  0  0  0  0  0  0  0  0  0  0  0
    1.4790    1.4190    1.8530 C   0  0  0  0  0  0  0  0  0  0  0  0
    2.7660    1.7790    1.5180 C   0  0  0  0  0  0  0  0  0  0  0  0
    3.3230    2.8540    2.1460 O   0  0  0  0  0  0  0  0  0  0  0  0
    3.4490    1.0410    0.5610 C   0  0  0  0  0  0  0  0  0  0  0  0
    4.7420    1.3560    0.1850 C   0  0  0  0  0  0  0  0  0  0  0  0
    5.4440    0.6240   -0.7770 C   0  0  0  0  0  0  0  0  0  0  0  0
    6.7210    0.9950   -1.0980 F   0  0  0  0  0  0  0  0  0  0  0  0
  1  2  1  0
  2  3  2  0
  2 22  1  0
  3  4  1  0
  4  5  2  0
  4 20  1  0
  5  6  1  0
  5 16  1  0
  6  7  1  0
  7  8  1  0
  8  9  2  0
  8 10  1  0
 11 10  1  1
 11 12  1  0
 11 15  1  0
 12 13  1  0
 13 14  1  0
 14 15  1  0
 16 17  2  0
 17 18  1  0
 18 19  1  0
 18 20  2  0
 20 21  1  0
 21 22  2  0
 22 23  1  0
M  END
