
     RDKit          3D

 23 25  0  0  0  0  0  0  0  0999 V2000
   -2.4030    3.7280    0.2140 O   0  0  0  0  0  0  0  0  0  0  0  0
   -1.1530    3.7860    0.1160 C   0  0  0  0  0  0  0  0  0  0  0  0
   -0.5470    5.1170    0.2290 C   0  0  0  0  0  0  0  0  0  0  0  0
    0.6990    5.0560   -0.3770 O   0  0  0  0  0  0  0  0  0  0  0  0
   -0.3390    2.6650   -0.0820 N   0  0  0  0  0  0  0  0  0  0  0  0
   -0.8030    1.3170   -0.1920 C   0  0  0  0  0  0  0  0  0  0  0  0
   -2.1340    0.9660    0.0380 C   0  0  0  0  0  0  0  0  0  0  0  0
   -2.5150   -0.3960    0.0180 C   0  0  0  0  0  0  0  0  0  0  0  0
   -1.6210   -1.4000   -0.2080 C   0  0  0  0  0  0  0  0  0  0  0  0
   -0.2880   -1.0110   -0.4390 C   0  0  0  0  0  0  0  0  0  0  0  0
    0.5860   -2.0010   -0.7390 F   0  0  0  0  0  0  0  0  0  0  0  0
    0.0710    0.3130   -0.4260 C   0  0  0  0  0  0  0  0  0  0  0  0
    1.5000    0.6570   -0.8260 C   0  0  0  0  0  0  0  0  0  0  0  0
    2.2530    0.0230    0.2050 N   0  0  0  0  0  0  0  0  0  0  0  0
    3.4400   -0.7090    0.2310 C   0  0  0  0  0  0  0  0  0  0  0  0
    3.8470   -1.5910   -0.6540 C   0  0  0  0  0  0  0  0  0  0  0  0
    5.1400   -2.1450   -0.2360 C   0  0  0  0  0  0  0  0  0  0  0  0
    5.4410   -1.4230    1.0450 C   0  0  0  0  0  0  0  0  0  0  0  0
    4.4540   -0.6170    1.2830 C   0  0  0  0  0  0  0  0  0  0  0  0
   -2.0260   -2.8040   -0.1580 C   0  0  0  0  0  0  0  0  0  0  0  0
   -3.4750   -3.0870   -0.2140 C   0  0  0  0  0  0  0  0  0  0  0  0
   -4.3540   -2.0600    0.4140 C   0  0  0  0  0  0  0  0  0  0  0  0
   -3.9540   -0.6660    0.1610 C   0  0  0  0  0  0  0  0  0  0  0  0
  1  2  2  0
  2  3  1  0
  2  5  1  0
  3  4  1  0
  5  6  1  0
  6  7  2  0
  6 12  1  0
  7  8  1  0
  8  9  2  0
  8 23  1  0
  9 10  1  0
  9 20  1  0
 10 11  1  0
 10 12  2  0
 12 13  1  0
 13 14  1  0
 14 15  1  0
 15 16  2  0
 15 19  1  0
 16 17  1  0
 17 18  1  0
 18 19  2  0
 20 21  1  0
 21 22  1  0
 22 23  1  0
M  END
