
     RDKit          3D

 15 15  0  0  0  0  0  0  0  0999 V2000
   -5.6130   -0.0160   -0.1570 O   0  0  0  0  0  0  0  0  0  0  0  0
   -4.3850    0.6520   -0.3540 C   0  0  0  0  0  0  0  0  0  0  0  0
   -3.3060   -0.3680   -0.0660 C   0  0  0  0  0  0  0  0  0  0  0  0
   -2.0440    0.2060   -0.2360 O   0  0  0  0  0  0  0  0  0  0  0  0
   -1.0440   -0.7280    0.0280 C   0  0  1  0  0  0  0  0  0  0  0  0
   -0.1910   -0.8320   -1.2210 C   0  0  0  0  0  0  0  0  0  0  0  0
    0.6260    0.2840   -1.3050 O   0  0  0  0  0  0  0  0  0  0  0  0
    1.6360    0.2870   -0.3450 C   0  0  2  0  0  0  0  0  0  0  0  0
    1.7060    1.5990    0.1460 O   0  0  0  0  0  0  0  0  0  0  0  0
    2.9090   -0.1290   -1.0190 C   0  0  0  0  0  0  0  0  0  0  0  0
    4.0870   -0.1640   -0.0760 C   0  0  0  0  0  0  0  0  0  0  0  0
    4.3000    1.0980    0.4740 O   0  0  0  0  0  0  0  0  0  0  0  0
    1.2570   -0.5970    0.8070 C   0  0  0  0  0  0  0  0  0  0  0  0
   -0.1870   -0.2300    1.1740 C   0  0  1  0  0  0  0  0  0  0  0  0
   -0.2390    1.1580    1.1750 O   0  0  0  0  0  0  0  0  0  0  0  0
  1  2  1  0
  2  3  1  0
  3  4  1  0
  5  4  1  6
  5  6  1  0
  5 14  1  0
  6  7  1  0
  7  8  1  0
  8  9  1  1
  8 10  1  0
  8 13  1  0
 10 11  1  0
 11 12  1  0
 13 14  1  0
 14 15  1  6
M  END
