
     RDKit          3D

 14 14  0  0  0  0  0  0  0  0999 V2000
   -2.3280   -1.6920    1.3940 O   0  0  0  0  0  0  0  0  0  0  0  0
   -1.0240   -1.4850    0.8810 C   0  0  0  0  0  0  0  0  0  0  0  0
   -1.0580   -0.0860    0.2790 C   0  0  2  0  0  0  0  0  0  0  0  0
   -1.3760    0.7940    1.3280 O   0  0  0  0  0  0  0  0  0  0  0  0
   -2.1950   -0.1000   -0.6890 C   0  0  0  0  0  0  0  0  0  0  0  0
   -2.5140    1.1330   -1.2410 O   0  0  0  0  0  0  0  0  0  0  0  0
    0.2580    0.3390   -0.2630 C   0  0  2  0  0  0  0  0  0  0  0  0
    0.1450    1.7480   -0.8470 C   0  0  0  0  0  0  0  0  0  0  0  0
   -0.2600    2.5740    0.1860 O   0  0  0  0  0  0  0  0  0  0  0  0
    0.8410   -0.6170   -1.2730 C   0  0  0  0  0  0  0  0  0  0  0  0
    1.8120   -1.5080   -0.5510 C   0  0  0  0  0  0  0  0  0  0  0  0
    2.1370   -0.8480    0.7500 C   0  0  0  0  0  0  0  0  0  0  0  0
    1.3380    0.4110    0.7810 C   0  0  1  0  0  0  0  0  0  0  0  0
    2.2020    1.4630    0.4190 O   0  0  0  0  0  0  0  0  0  0  0  0
  1  2  1  0
  2  3  1  0
  3  4  1  1
  3  5  1  0
  3  7  1  0
  5  6  1  0
  7  8  1  6
  7 10  1  0
  7 13  1  0
  8  9  1  0
 10 11  1  0
 11 12  1  0
 12 13  1  0
 13 14  1  6
M  END
