
     RDKit          3D

 15 16  0  0  0  0  0  0  0  0999 V2000
   -3.2060    1.5520    0.3550 N   0  0  0  0  0  0  0  0  0  0  0  0
   -2.3510    0.4630    0.0890 C   0  0  0  0  0  0  0  0  0  0  0  0
   -2.7590   -0.4670   -0.8490 C   0  0  0  0  0  0  0  0  0  0  0  0
   -1.9760   -1.5170   -1.1310 N   0  0  0  0  0  0  0  0  0  0  0  0
   -0.8040   -1.6310   -0.4800 C   0  0  0  0  0  0  0  0  0  0  0  0
   -0.0940   -2.6260   -0.7670 O   0  0  0  0  0  0  0  0  0  0  0  0
   -0.3550   -0.7740    0.4300 N   0  0  0  0  0  0  0  0  0  0  0  0
    0.9020   -0.9380    1.1020 C   0  0  0  0  0  0  0  0  0  0  0  0
    2.0660   -0.3200    0.4390 C   0  0  2  0  0  0  0  0  0  0  0  0
    2.0230    1.1540    0.2260 C   0  0  0  0  0  0  0  0  0  0  0  0
    3.1200    1.3220   -0.6410 O   0  0  0  0  0  0  0  0  0  0  0  0
    3.3690    0.1020   -1.2200 C   0  0  0  0  0  0  0  0  0  0  0  0
    2.3470   -0.7840   -0.8320 O   0  0  0  0  0  0  0  0  0  0  0  0
   -1.1230    0.2880    0.7300 C   0  0  0  0  0  0  0  0  0  0  0  0
   -0.8200    1.1730    1.5710 O   0  0  0  0  0  0  0  0  0  0  0  0
  1  2  1  0
  2  3  2  0
  2 14  1  0
  3  4  1  0
  4  5  1  0
  5  6  2  0
  5  7  1  0
  7  8  1  0
  7 14  1  0
  9  8  1  6
  9 10  1  0
  9 13  1  0
 10 11  1  0
 11 12  1  0
 12 13  1  0
 14 15  2  0
M  CHG  1   1   1
M  END
