
     RDKit          3D

 15 16  0  0  0  0  0  0  0  0999 V2000
   -4.0740   -1.0510    1.1520 N   0  0  0  0  0  0  0  0  0  0  0  0
   -3.0130   -0.1900    0.8000 C   0  0  0  0  0  0  0  0  0  0  0  0
   -2.9740    0.9220    1.3960 O   0  0  0  0  0  0  0  0  0  0  0  0
   -2.0570   -0.6420   -0.2090 C   0  0  0  0  0  0  0  0  0  0  0  0
   -1.0030    0.2480   -0.5390 N   0  0  1  0  0  0  0  0  0  0  0  0
   -0.6210    1.1920    0.4600 C   0  0  0  0  0  0  0  0  0  0  0  0
    0.8120    1.5320    0.0250 C   0  0  0  0  0  0  0  0  0  0  0  0
    1.3590    0.1620   -0.2220 C   0  0  2  0  0  0  0  0  0  0  0  0
    1.8290   -0.4300    1.1100 C   0  0  0  0  0  0  0  0  0  0  0  0
    2.9290    0.2750    1.5060 O   0  0  0  0  0  0  0  0  0  0  0  0
    3.9850    0.1950    0.7830 O   0  0  0  0  0  0  0  0  0  0  0  0
    3.8010   -0.1140   -0.5120 N   0  0  0  0  0  0  0  0  0  0  0  0
    2.5440    0.1410   -1.0950 C   0  0  0  0  0  0  0  0  0  0  0  0
    2.4480    0.3430   -2.3160 O   0  0  0  0  0  0  0  0  0  0  0  0
    0.1900   -0.5780   -0.7810 C   0  0  0  0  0  0  0  0  0  0  0  0
  1  2  1  0
  2  3  2  0
  2  4  1  0
  5  4  1  1
  5  6  1  0
  5 15  1  0
  6  7  1  0
  8  7  1  1
  8  9  1  0
  8 13  1  0
  8 15  1  0
  9 10  1  0
 10 11  1  0
 11 12  1  0
 12 13  1  0
 13 14  2  0
M  CHG  1   5   1
M  END
