
     RDKit          3D

 15 15  0  0  0  0  0  0  0  0999 V2000
    4.7770   -1.0540    0.5690 O   0  0  0  0  0  0  0  0  0  0  0  0
    4.5440    0.2880    0.3490 C   0  0  0  0  0  0  0  0  0  0  0  0
    3.2850    0.4310   -0.4910 C   0  0  2  0  0  0  0  0  0  0  0  0
    3.0230    1.7770   -0.7300 O   0  0  0  0  0  0  0  0  0  0  0  0
    2.1090   -0.1690    0.2650 C   0  0  0  0  0  0  0  0  0  0  0  0
    0.9920   -0.0100   -0.5460 O   0  0  0  0  0  0  0  0  0  0  0  0
   -0.1380   -0.5270    0.0560 C   0  0  2  0  0  0  0  0  0  0  0  0
   -0.7750   -1.6370   -0.7380 C   0  0  0  0  0  0  0  0  0  0  0  0
   -1.7740   -1.2100   -1.5850 O   0  0  0  0  0  0  0  0  0  0  0  0
   -2.8120   -0.5650   -0.9750 C   0  0  0  0  0  0  0  0  0  0  0  0
   -2.4940   -0.0390    0.3920 C   0  0  2  0  0  0  0  0  0  0  0  0
   -2.4240   -1.0960    1.2830 O   0  0  0  0  0  0  0  0  0  0  0  0
   -3.5460    0.9410    0.8500 C   0  0  0  0  0  0  0  0  0  0  0  0
   -3.6240    2.0030   -0.0370 O   0  0  0  0  0  0  0  0  0  0  0  0
   -1.1210    0.5930    0.3330 C   0  0  0  0  0  0  0  0  0  0  0  0
  1  2  1  0
  2  3  1  0
  3  4  1  1
  3  5  1  0
  5  6  1  0
  7  6  1  6
  7  8  1  0
  7 15  1  0
  8  9  1  0
  9 10  1  0
 10 11  1  0
 11 12  1  1
 11 13  1  0
 11 15  1  0
 13 14  1  0
M  END
