
     RDKit          3D

 43 45  0  0  0  0  0  0  0  0999 V2000
   -2.8110   -5.5470    0.9910 C   0  0  0  0  0  0  0  0  0  0  0  0
   -2.7050   -4.0980    0.5840 C   0  0  0  0  0  0  0  0  0  0  0  0
   -2.4040   -3.2310    1.6990 N   0  0  0  0  0  0  0  0  0  0  0  0
   -3.3930   -3.0370    2.7290 C   0  0  0  0  0  0  0  0  0  0  0  0
   -1.1420   -2.5910    1.7530 C   0  0  0  0  0  0  0  0  0  0  0  0
   -0.8130   -1.5680    0.9210 C   0  0  0  0  0  0  0  0  0  0  0  0
    0.4900   -0.9780    1.0460 C   0  0  0  0  0  0  0  0  0  0  0  0
    1.0340   -0.0270    0.3440 C   0  0  0  0  0  0  0  0  0  0  0  0
    2.7590    0.5350    0.7560 P   0  0  0  0  0  0  0  0  0  0  0  0
    4.0900   -0.0890    0.0290 C   0  0  0  0  0  0  0  0  0  0  0  0
    3.9960   -1.4100   -1.2690 P   0  0  0  0  0  0  0  0  0  0  0  0
    5.4700   -1.8750   -1.8460 C   0  0  0  0  0  0  0  0  0  0  0  0
    5.6700   -2.9150   -2.8900 C   0  0  0  0  0  0  0  0  0  0  0  0
    6.5890   -1.1810   -1.2490 C   0  0  0  0  0  0  0  0  0  0  0  0
    6.5930   -0.2570   -0.3350 C   0  0  0  0  0  0  0  0  0  0  0  0
    5.4220    0.3510    0.3580 C   0  0  0  0  0  0  0  0  0  0  0  0
    5.6420    1.2860    1.2690 C   0  0  0  0  0  0  0  0  0  0  0  0
    4.7660    2.0440    2.0920 C   0  0  0  0  0  0  0  0  0  0  0  0
    5.3750    2.9370    2.9320 C   0  0  0  0  0  0  0  0  0  0  0  0
    6.7860    3.0560    2.9360 N   0  0  0  0  0  0  0  0  0  0  0  0
    7.4390    4.0540    2.1140 C   0  0  0  0  0  0  0  0  0  0  0  0
    0.2550    0.7590   -1.0740 P   0  0  0  0  0  0  0  0  0  0  0  0
    1.1240    2.3190   -1.5850 C   0  0  0  0  0  0  0  0  0  0  0  0
   -0.0880   -0.2750   -2.3900 O   0  0  0  0  0  0  0  0  0  0  0  0
    0.6740   -1.3420   -2.3190 O   0  0  0  0  0  0  0  0  0  0  0  0
   -1.7720   -1.1330   -0.0290 N   0  0  0  0  0  0  0  0  0  0  0  0
   -2.4790    0.1170    0.1280 C   0  0  0  0  0  0  0  0  0  0  0  0
   -2.2220    0.7890    1.1420 O   0  0  0  0  0  0  0  0  0  0  0  0
   -3.4480    0.5200   -0.8990 C   0  0  0  0  0  0  0  0  0  0  0  0
   -3.4500   -0.0110   -2.1540 N   0  0  0  0  0  0  0  0  0  0  0  0
   -4.4020    0.5560   -2.9020 C   0  0  0  0  0  0  0  0  0  0  0  0
   -4.7250    0.2470   -4.3310 C   0  0  0  0  0  0  0  0  0  0  0  0
   -5.7040   -0.7570   -4.3350 O   0  0  0  0  0  0  0  0  0  0  0  0
   -5.0180    1.4700   -2.0930 C   0  0  0  0  0  0  0  0  0  0  0  0
   -4.4240    1.4610   -0.8060 C   0  0  0  0  0  0  0  0  0  0  0  0
   -4.9630    2.2370    0.2660 C   0  0  0  0  0  0  0  0  0  0  0  0
   -5.5750    3.4530   -0.0760 C   0  0  0  0  0  0  0  0  0  0  0  0
   -6.0600    4.2910    0.8990 C   0  0  0  0  0  0  0  0  0  0  0  0
   -6.6180    5.3920    0.6530 O   0  0  0  0  0  0  0  0  0  0  0  0
   -5.9330    3.9190    2.1570 O   0  0  0  0  0  0  0  0  0  0  0  0
   -5.3700    2.7950    2.5010 C   0  0  0  0  0  0  0  0  0  0  0  0
   -5.2980    2.5330    3.7250 O   0  0  0  0  0  0  0  0  0  0  0  0
   -4.8790    1.9390    1.5590 N   0  0  0  0  0  0  0  0  0  0  0  0
  1  2  1  0
  2  3  1  0
  3  4  1  0
  3  5  1  0
  5  6  2  3
  6  7  1  0
  6 26  1  0
  7  8  2  3
  8  9  1  0
  8 22  1  0
  9 10  2  3
 10 11  1  0
 10 16  1  0
 11 12  2  0
 12 13  1  0
 12 14  1  0
 14 15  2  0
 15 16  1  0
 16 17  2  3
 17 18  1  0
 18 19  2  3
 19 20  1  0
 20 21  1  0
 22 23  1  0
 22 24  1  0
 24 25  1  0
 26 27  1  0
 27 28  2  0
 27 29  1  0
 29 30  1  0
 29 35  2  0
 30 31  1  0
 31 32  1  0
 31 34  2  0
 32 33  1  0
 34 35  1  0
 35 36  1  0
 36 37  2  0
 36 43  1  0
 37 38  1  0
 38 39  2  0
 38 40  1  0
 40 41  1  0
 41 42  2  0
 41 43  1  0
M  END
