
     RDKit          3D

 43 46  0  0  0  0  0  0  0  0999 V2000
    1.7820    3.3920    0.3000 C   0  0  0  0  0  0  0  0  0  0  0  0
    0.8650    3.0910    1.1190 N   0  0  0  0  0  0  0  0  0  0  0  0
    0.1440    1.8680    0.9450 C   0  0  1  0  0  0  0  0  0  0  0  0
    0.4130    0.9590    1.9630 O   0  0  0  0  0  0  0  0  0  0  0  0
   -1.3010    2.0680    0.7760 C   0  0  0  0  0  0  0  0  0  0  0  0
   -1.9530    1.3440   -0.0480 C   0  0  0  0  0  0  0  0  0  0  0  0
   -3.4120    1.3420   -0.4010 C   0  0  1  0  0  0  0  0  0  0  0  0
   -3.7810   -0.1390   -0.5880 C   0  0  0  0  0  0  0  0  0  0  0  0
   -4.3210    1.9640    0.5760 C   0  0  0  0  0  0  0  0  0  0  0  0
   -4.2470    1.2230    1.8770 C   0  0  0  0  0  0  0  0  0  0  0  0
   -4.6950    0.0080    1.9560 N   0  0  0  0  0  0  0  0  0  0  0  0
   -4.7120   -0.8440    3.0870 C   0  0  1  0  0  0  0  0  0  0  0  0
   -6.1060   -0.8010    3.7190 C   0  0  0  0  0  0  0  0  0  0  0  0
   -4.3940   -2.6390    2.6820 P   0  0  0  0  0  0  0  0  0  0  0  0
   -3.7520   -0.4640    4.1950 C   0  0  0  0  0  0  0  0  0  0  0  0
   -3.6250    1.0220    4.2820 C   0  0  0  0  0  0  0  0  0  0  0  0
   -3.4690    1.5330    5.4010 O   0  0  0  0  0  0  0  0  0  0  0  0
   -3.6910    1.7760    3.0590 N   0  0  0  0  0  0  0  0  0  0  0  0
   -3.4850    1.8970   -1.7590 N   0  0  0  0  0  0  0  0  0  0  0  0
   -2.6010    1.4530   -2.6090 C   0  0  0  0  0  0  0  0  0  0  0  0
   -2.6130    1.9560   -3.9640 C   0  0  0  0  0  0  0  0  0  0  0  0
   -3.3670    2.8090   -4.5490 C   0  0  0  0  0  0  0  0  0  0  0  0
   -4.4590    3.5180   -3.9430 C   0  0  0  0  0  0  0  0  0  0  0  0
   -5.1930    4.3930   -4.6360 C   0  0  0  0  0  0  0  0  0  0  0  0
   -6.2420    5.0720   -4.0480 O   0  0  0  0  0  0  0  0  0  0  0  0
   -1.6520    0.4930   -2.1910 O   0  0  0  0  0  0  0  0  0  0  0  0
   -1.1840    0.3610   -0.8630 C   0  0  2  0  0  0  0  0  0  0  0  0
   -1.1800   -0.9170   -0.3830 O   0  0  0  0  0  0  0  0  0  0  0  0
    0.5370    1.1300   -0.7170 P   0  0  0  0  0  0  0  0  0  0  0  0
    1.7070   -0.2590   -0.4370 C   0  0  0  0  0  0  0  0  0  0  0  0
    1.5010   -1.2480    0.5060 C   0  0  0  0  0  0  0  0  0  0  0  0
    2.4080   -2.2840    0.6930 C   0  0  0  0  0  0  0  0  0  0  0  0
    3.5530   -2.3680   -0.0560 C   0  0  0  0  0  0  0  0  0  0  0  0
    4.4960   -3.4420    0.1290 N   0  0  0  0  0  0  0  0  0  0  0  0
    5.7240   -3.5120   -0.5990 C   0  0  2  0  0  0  0  0  0  0  0  0
    6.4450   -4.8110   -0.2110 C   0  0  0  0  0  0  0  0  0  0  0  0
    6.6320   -2.3600   -0.2430 C   0  0  0  0  0  0  0  0  0  0  0  0
    6.2460   -1.5350    0.6160 O   0  0  0  0  0  0  0  0  0  0  0  0
    7.8700   -2.1800   -0.8230 O   0  0  0  0  0  0  0  0  0  0  0  0
    8.7250   -1.0910   -0.4830 C   0  0  0  0  0  0  0  0  0  0  0  0
    9.9820   -1.2170   -1.3260 C   0  0  0  0  0  0  0  0  0  0  0  0
    3.7790   -1.3960   -1.0010 C   0  0  0  0  0  0  0  0  0  0  0  0
    2.8660   -0.3540   -1.1880 C   0  0  0  0  0  0  0  0  0  0  0  0
  1  2  2  0
  2  3  1  0
  3  4  1  1
  3  5  1  0
  3 29  1  0
  5  6  2  0
  6  7  1  0
  6 27  1  0
  7  8  1  6
  7  9  1  0
  7 19  1  0
  9 10  1  0
 10 11  2  0
 10 18  1  0
 11 12  1  0
 12 13  1  1
 12 14  1  0
 12 15  1  0
 15 16  1  0
 16 17  2  0
 16 18  1  0
 19 20  2  0
 20 21  1  0
 20 26  1  0
 21 22  2  3
 22 23  1  0
 23 24  2  3
 24 25  1  0
 26 27  1  0
 27 28  1  1
 27 29  1  0
 29 30  1  0
 30 31  2  0
 30 43  1  0
 31 32  1  0
 32 33  2  0
 33 34  1  0
 33 42  1  0
 34 35  1  0
 35 36  1  1
 35 37  1  0
 37 38  2  0
 37 39  1  0
 39 40  1  0
 40 41  1  0
 42 43  2  0
M  END
