
     RDKit          3D

 43 45  0  0  0  0  0  0  0  0999 V2000
    5.2900   -2.1780    2.9890 C   0  0  0  0  0  0  0  0  0  0  0  0
    5.8940   -0.8120    2.8680 C   0  0  0  0  0  0  0  0  0  0  0  0
    5.2130    0.1940    2.3680 C   0  0  0  0  0  0  0  0  0  0  0  0
    5.7880    1.5090    2.2550 C   0  0  0  0  0  0  0  0  0  0  0  0
    7.1770    1.8010    2.7040 C   0  0  0  0  0  0  0  0  0  0  0  0
    5.0900    2.5250    1.7270 C   0  0  0  0  0  0  0  0  0  0  0  0
    5.5700    3.8130    1.5800 O   0  0  0  0  0  0  0  0  0  0  0  0
    3.8880   -0.0020    1.7890 N   0  0  0  0  0  0  0  0  0  0  0  0
    2.9240   -0.0730    2.7340 O   0  0  0  0  0  0  0  0  0  0  0  0
    3.8220   -0.2150    0.4120 C   0  0  0  0  0  0  0  0  0  0  0  0
    5.0230   -0.2310   -0.1390 O   0  0  0  0  0  0  0  0  0  0  0  0
    2.7760   -0.4270   -0.5260 C   0  0  0  0  0  0  0  0  0  0  0  0
    3.0840   -1.1760   -1.6860 C   0  0  0  0  0  0  0  0  0  0  0  0
    4.3840   -1.6690   -1.8740 O   0  0  0  0  0  0  0  0  0  0  0  0
    2.1590   -1.4450   -2.6430 C   0  0  0  0  0  0  0  0  0  0  0  0
    0.8590   -1.0070   -2.5490 C   0  0  0  0  0  0  0  0  0  0  0  0
   -0.1380   -1.2950   -3.5660 C   0  0  0  0  0  0  0  0  0  0  0  0
   -0.8510   -2.3200   -3.5750 O   0  0  0  0  0  0  0  0  0  0  0  0
   -0.3100   -0.3520   -4.6150 N   0  0  0  0  0  0  0  0  0  0  0  0
    0.4520    0.8780   -4.6940 C   0  0  0  0  0  0  0  0  0  0  0  0
   -1.2700   -0.6060   -5.6670 C   0  0  0  0  0  0  0  0  0  0  0  0
    0.5370   -0.2710   -1.4290 C   0  0  0  0  0  0  0  0  0  0  0  0
   -0.7480    0.2200   -1.3160 C   0  0  0  0  0  0  0  0  0  0  0  0
   -1.1860    1.0080   -0.2620 C   0  0  0  0  0  0  0  0  0  0  0  0
   -2.5770    1.5240   -0.1680 C   0  0  0  0  0  0  0  0  0  0  0  0
   -3.3220    0.8150    0.8280 N   0  0  0  0  0  0  0  0  0  0  0  0
   -4.6280    1.2700    1.1960 C   0  0  0  0  0  0  0  0  0  0  0  0
   -5.4730    2.1640    0.0870 P   0  0  0  0  0  0  0  0  0  0  0  0
   -7.1470    2.7730    0.5030 C   0  0  0  0  0  0  0  0  0  0  0  0
   -8.0940    2.0040    0.5850 O   0  0  0  0  0  0  0  0  0  0  0  0
   -5.2270    0.9710    2.5050 C   0  0  0  0  0  0  0  0  0  0  0  0
   -6.5180    1.4180    2.8730 N   0  0  0  0  0  0  0  0  0  0  0  0
   -4.5040    0.2610    3.3260 N   0  0  0  0  0  0  0  0  0  0  0  0
   -3.1940   -0.2150    2.9910 C   0  0  0  0  0  0  0  0  0  0  0  0
   -2.4000   -0.4870    3.8790 O   0  0  0  0  0  0  0  0  0  0  0  0
   -2.8450   -0.3620    1.5150 C   0  0  1  0  0  0  0  0  0  0  0  0
   -3.6650   -1.6000    1.1060 C   0  0  0  0  0  0  0  0  0  0  0  0
   -3.5800   -1.9320   -0.6890 P   0  0  0  0  0  0  0  0  0  0  0  0
   -4.9140   -3.1020   -1.2310 C   0  0  0  0  0  0  0  0  0  0  0  0
   -5.9550   -3.1030   -0.3290 O   0  0  0  0  0  0  0  0  0  0  0  0
   -0.2320    1.2840    0.6990 C   0  0  0  0  0  0  0  0  0  0  0  0
    1.0470    0.8050    0.6090 C   0  0  0  0  0  0  0  0  0  0  0  0
    1.4800    0.0170   -0.4330 C   0  0  0  0  0  0  0  0  0  0  0  0
  1  2  1  0
  2  3  2  3
  3  4  1  0
  3  8  1  0
  4  5  1  0
  4  6  2  3
  6  7  1  0
  8  9  1  0
  8 10  1  0
 10 11  2  0
 10 12  1  0
 12 13  2  0
 12 43  1  0
 13 14  1  0
 13 15  1  0
 15 16  2  0
 16 17  1  0
 16 22  1  0
 17 18  2  0
 17 19  1  0
 19 20  1  0
 19 21  1  0
 22 23  2  0
 22 43  1  0
 23 24  1  0
 24 25  1  0
 24 41  2  0
 25 26  1  0
 26 27  1  0
 26 36  1  0
 27 28  2  3
 27 31  1  0
 28 29  1  0
 29 30  2  0
 31 32  1  0
 31 33  2  0
 33 34  1  0
 34 35  2  0
 34 36  1  0
 36 37  1  6
 37 38  1  0
 38 39  1  0
 39 40  1  0
 41 42  1  0
 42 43  2  0
M  END
