
     RDKit          3D

 43 45  0  0  0  0  0  0  0  0999 V2000
   -1.5570    5.4120   -2.5230 C   0  0  0  0  0  0  0  0  0  0  0  0
   -1.8710    4.3670   -3.5340 C   0  0  0  0  0  0  0  0  0  0  0  0
   -1.7920    3.0930   -3.1880 C   0  0  0  0  0  0  0  0  0  0  0  0
   -1.4050    2.7040   -1.8420 C   0  0  0  0  0  0  0  0  0  0  0  0
   -1.3290    1.4580   -1.5100 C   0  0  0  0  0  0  0  0  0  0  0  0
   -1.6080    0.3970   -2.4020 O   0  0  0  0  0  0  0  0  0  0  0  0
   -0.9290   -0.7960   -2.3650 C   0  0  0  0  0  0  0  0  0  0  0  0
   -1.1660   -1.7590   -3.1540 O   0  0  0  0  0  0  0  0  0  0  0  0
    0.1220   -0.9320   -1.3440 N   0  0  0  0  0  0  0  0  0  0  0  0
    0.8470   -2.0940   -1.1080 C   0  0  0  0  0  0  0  0  0  0  0  0
    2.0480   -2.7220   -1.6090 C   0  0  0  0  0  0  0  0  0  0  0  0
    2.2350   -3.0870   -2.9970 C   0  0  0  0  0  0  0  0  0  0  0  0
    3.3610   -3.6640   -3.2470 O   0  0  0  0  0  0  0  0  0  0  0  0
    1.4520   -2.9390   -4.0930 O   0  0  0  0  0  0  0  0  0  0  0  0
    0.2620    0.2200   -0.5370 N   0  0  0  0  0  0  0  0  0  0  0  0
    1.5880    0.5150   -0.1620 C   0  0  0  0  0  0  0  0  0  0  0  0
    2.7510    0.3050   -0.9200 C   0  0  0  0  0  0  0  0  0  0  0  0
    2.8610    0.0900   -2.3310 C   0  0  0  0  0  0  0  0  0  0  0  0
    1.8880    0.1140   -3.1600 N   0  0  0  0  0  0  0  0  0  0  0  0
    3.9060    0.2410   -0.2740 C   0  0  0  0  0  0  0  0  0  0  0  0
    3.9450    0.3770    1.0900 O   0  0  0  0  0  0  0  0  0  0  0  0
    5.0900    0.1710    1.8870 C   0  0  0  0  0  0  0  0  0  0  0  0
    5.5240   -0.0270   -1.1030 P   0  0  0  0  0  0  0  0  0  0  0  0
    6.2670   -1.6510   -0.6860 C   0  0  0  0  0  0  0  0  0  0  0  0
    6.6590    1.3560   -0.8530 C   0  0  0  0  0  0  0  0  0  0  0  0
    7.8530    1.1560   -0.8680 O   0  0  0  0  0  0  0  0  0  0  0  0
    1.7400    1.1720    1.4320 P   0  0  0  0  0  0  0  0  0  0  0  0
   -0.0090    1.3100    2.1200 C   0  0  0  0  0  0  0  0  0  0  0  0
   -0.3290    1.0740    3.3520 C   0  0  0  0  0  0  0  0  0  0  0  0
   -1.6120    1.1430    3.9950 C   0  0  0  0  0  0  0  0  0  0  0  0
   -1.6970    0.8060    5.4650 C   0  0  0  0  0  0  0  0  0  0  0  0
   -2.7190    1.4640    3.4520 N   0  0  0  0  0  0  0  0  0  0  0  0
   -0.8750    1.7750    1.0030 C   0  0  0  0  0  0  0  0  0  0  0  0
   -0.9440    0.9410   -0.1610 C   0  0  1  0  0  0  0  0  0  0  0  0
   -2.1090    0.0100    0.1140 C   0  0  0  0  0  0  0  0  0  0  0  0
   -2.0830   -1.0340    0.8650 C   0  0  0  0  0  0  0  0  0  0  0  0
   -0.9550   -1.4130    1.5160 O   0  0  0  0  0  0  0  0  0  0  0  0
   -3.3810   -1.7990    0.9700 C   0  0  1  0  0  0  0  0  0  0  0  0
   -3.2440   -2.9800    1.8630 C   0  0  0  0  0  0  0  0  0  0  0  0
   -4.5840   -3.6850    1.9110 C   0  0  0  0  0  0  0  0  0  0  0  0
   -4.4410   -0.9040    1.3990 N   0  0  0  0  0  0  0  0  0  0  0  0
   -4.4870    0.2920    0.6020 C   0  0  0  0  0  0  0  0  0  0  0  0
   -3.4480    0.3860   -0.4680 C   0  0  0  0  0  0  0  0  0  0  0  0
  1  2  1  0
  2  3  2  3
  3  4  1  0
  4  5  2  3
  5  6  1  0
  5 34  1  0
  6  7  1  0
  7  8  2  0
  7  9  1  0
  9 10  1  0
  9 15  1  0
 10 11  1  0
 11 12  1  0
 12 13  2  0
 12 14  1  0
 15 16  1  0
 15 34  1  0
 16 17  1  0
 16 27  2  0
 17 18  1  0
 17 20  2  3
 18 19  2  0
 20 21  1  0
 20 23  1  0
 21 22  1  0
 23 24  1  0
 23 25  1  0
 25 26  2  0
 27 28  1  0
 28 29  2  3
 28 33  1  0
 29 30  1  0
 30 31  1  0
 30 32  2  0
 33 34  1  0
 34 35  1  1
 35 36  2  0
 35 43  1  0
 36 37  1  0
 36 38  1  0
 38 39  1  1
 38 41  1  0
 39 40  1  0
 41 42  1  0
 42 43  1  0
M  END
