
     RDKit          3D

 43 47  0  0  0  0  0  0  0  0999 V2000
   10.6400    2.4150    0.4870 N   0  0  0  0  0  0  0  0  0  0  0  0
    9.3260    1.9160    0.7120 C   0  0  0  0  0  0  0  0  0  0  0  0
    8.2560    2.4550    0.0340 C   0  0  0  0  0  0  0  0  0  0  0  0
    6.9740    1.9770    0.2430 C   0  0  0  0  0  0  0  0  0  0  0  0
    6.8000    0.9470    1.1490 C   0  0  0  0  0  0  0  0  0  0  0  0
    5.4480    0.4150    1.4000 C   0  0  0  0  0  0  0  0  0  0  0  0
    4.4840    1.1420    0.9890 O   0  0  0  0  0  0  0  0  0  0  0  0
    5.2090   -0.8130    2.0480 N   0  0  0  0  0  0  0  0  0  0  0  0
    3.9050   -1.3520    2.2720 C   0  0  0  0  0  0  0  0  0  0  0  0
    3.0940   -1.7980    1.1330 C   0  0  0  0  0  0  0  0  0  0  0  0
    2.7380   -0.9300    0.0800 N   0  0  0  0  0  0  0  0  0  0  0  0
    1.5330   -0.1170    0.1450 C   0  0  0  0  0  0  0  0  0  0  0  0
    1.0140    0.2180   -1.2070 C   0  0  1  0  0  0  0  0  0  0  0  0
    2.0890    0.8950   -2.0260 C   0  0  0  0  0  0  0  0  0  0  0  0
    3.3260    0.1920   -1.9550 O   0  0  0  0  0  0  0  0  0  0  0  0
    3.5570   -0.8430   -1.1040 C   0  0  0  0  0  0  0  0  0  0  0  0
    4.4330   -1.6880   -1.3210 O   0  0  0  0  0  0  0  0  0  0  0  0
    0.5850   -1.0250   -1.9840 C   0  0  1  0  0  0  0  0  0  0  0  0
   -0.2320   -1.8530   -1.2370 O   0  0  0  0  0  0  0  0  0  0  0  0
   -0.1570   -0.3960   -3.1490 C   0  0  0  0  0  0  0  0  0  0  0  0
   -0.4720    1.0040   -2.7910 C   0  0  0  0  0  0  0  0  0  0  0  0
   -0.2290    1.0100   -1.2390 C   0  0  1  0  0  0  0  0  0  0  0  0
   -1.4280    0.3310   -0.7890 N   0  0  0  0  0  0  0  0  0  0  0  0
   -2.1610    0.7130    0.1690 C   0  0  0  0  0  0  0  0  0  0  0  0
   -3.3530    0.3330    0.8550 N   0  0  0  0  0  0  0  0  0  0  0  0
   -4.0800   -0.8650    0.5780 C   0  0  0  0  0  0  0  0  0  0  0  0
   -3.6580   -1.6440   -0.3160 O   0  0  0  0  0  0  0  0  0  0  0  0
   -5.2270   -1.2270    1.2380 O   0  0  0  0  0  0  0  0  0  0  0  0
   -5.9480   -2.4170    0.9620 C   0  0  0  0  0  0  0  0  0  0  0  0
   -6.4540   -2.4880   -0.4510 C   0  0  0  0  0  0  0  0  0  0  0  0
   -7.3470   -1.3880   -0.8970 C   0  0  0  0  0  0  0  0  0  0  0  0
   -8.6180   -1.1830   -0.1680 C   0  0  0  0  0  0  0  0  0  0  0  0
   -8.4920   -0.7390    1.6010 P   0  0  0  0  0  0  0  0  0  0  0  0
   -8.2990    0.9410    1.8900 O   0  0  0  0  0  0  0  0  0  0  0  0
   -9.7860   -1.3890    2.5550 O   0  0  0  0  0  0  0  0  0  0  0  0
   -3.6070    1.3540    1.7970 C   0  0  0  0  0  0  0  0  0  0  0  0
   -2.6790    2.2840    1.7660 N   0  0  0  0  0  0  0  0  0  0  0  0
   -1.6830    1.9720    0.8230 C   0  0  1  0  0  0  0  0  0  0  0  0
   -0.5720    1.5820    1.6610 F   0  0  0  0  0  0  0  0  0  0  0  0
   -1.2130    2.8900   -0.2140 C   0  0  0  0  0  0  0  0  0  0  0  0
   -0.1520    2.3490   -0.9520 O   0  0  0  0  0  0  0  0  0  0  0  0
    7.8990    0.4550    1.7890 C   0  0  0  0  0  0  0  0  0  0  0  0
    9.1490    0.9300    1.5770 N   0  0  0  0  0  0  0  0  0  0  0  0
  1  2  1  0
  2  3  2  0
  2 43  1  0
  3  4  1  0
  4  5  2  0
  5  6  1  0
  5 42  1  0
  6  7  2  0
  6  8  1  0
  8  9  1  0
  9 10  1  0
 10 11  1  0
 11 12  1  0
 11 16  1  0
 13 12  1  1
 13 14  1  0
 13 18  1  0
 13 22  1  0
 14 15  1  0
 15 16  1  0
 16 17  2  0
 18 19  1  1
 18 20  1  0
 20 21  1  0
 22 21  1  6
 22 23  1  0
 22 41  1  0
 23 24  2  0
 24 25  1  0
 24 38  1  0
 25 26  1  0
 25 36  1  0
 26 27  2  0
 26 28  1  0
 28 29  1  0
 29 30  1  0
 30 31  1  0
 31 32  1  0
 32 33  1  0
 33 34  1  0
 33 35  1  0
 36 37  2  0
 37 38  1  0
 38 39  1  1
 38 40  1  0
 40 41  1  0
 42 43  2  0
M  END
