
     RDKit          3D

 43 46  0  0  0  0  0  0  0  0999 V2000
    7.8480   -0.9070    4.2850 C   0  0  0  0  0  0  0  0  0  0  0  0
    6.3990   -0.7370    3.8710 C   0  0  0  0  0  0  0  0  0  0  0  0
    6.2880   -0.3570    2.5190 O   0  0  0  0  0  0  0  0  0  0  0  0
    5.0490   -0.1460    1.9300 C   0  0  0  0  0  0  0  0  0  0  0  0
    3.8650   -0.2970    2.6390 C   0  0  0  0  0  0  0  0  0  0  0  0
    2.6470   -0.0820    2.0340 C   0  0  0  0  0  0  0  0  0  0  0  0
    2.5390    0.2960    0.6910 C   0  0  0  0  0  0  0  0  0  0  0  0
    1.2310    0.4660    0.1230 N   0  0  0  0  0  0  0  0  0  0  0  0
    0.9960    1.3480   -0.9440 C   0  0  0  0  0  0  0  0  0  0  0  0
    1.9980    2.1950   -1.3220 N   0  0  0  0  0  0  0  0  0  0  0  0
    1.8960    3.1270   -2.2490 C   0  0  0  0  0  0  0  0  0  0  0  0
    0.7060    3.2420   -2.8620 N   0  0  0  0  0  0  0  0  0  0  0  0
   -0.3360    2.4500   -2.5540 C   0  0  0  0  0  0  0  0  0  0  0  0
   -0.2010    1.4700   -1.5700 C   0  0  0  0  0  0  0  0  0  0  0  0
   -1.4470    0.7810   -1.4750 C   0  0  0  0  0  0  0  0  0  0  0  0
   -1.8140   -0.2070   -0.7140 C   0  0  0  0  0  0  0  0  0  0  0  0
   -3.1930   -0.7580   -0.8090 C   0  0  0  0  0  0  0  0  0  0  0  0
   -3.7820   -0.8900   -2.0300 C   0  0  0  0  0  0  0  0  0  0  0  0
   -5.0690   -1.4050   -2.1050 C   0  0  0  0  0  0  0  0  0  0  0  0
   -5.7560   -1.7830   -0.9760 C   0  0  0  0  0  0  0  0  0  0  0  0
   -7.1290   -2.3330   -1.0610 C   0  0  0  0  0  0  0  0  0  0  0  0
   -8.1610   -1.2050   -0.9750 C   0  0  0  0  0  0  0  0  0  0  0  0
   -9.4480   -1.7010   -1.0530 O   0  0  0  0  0  0  0  0  0  0  0  0
   -5.1360   -1.6390    0.2400 C   0  0  0  0  0  0  0  0  0  0  0  0
   -3.8400   -1.1200    0.3180 C   0  0  0  0  0  0  0  0  0  0  0  0
   -3.2430   -0.9890    1.5840 O   0  0  0  0  0  0  0  0  0  0  0  0
   -3.9470   -1.3800    2.7530 C   0  0  0  0  0  0  0  0  0  0  0  0
   -3.1280   -1.1560    3.9910 C   0  0  0  0  0  0  0  0  0  0  0  0
   -3.8350   -1.5470    5.1390 O   0  0  0  0  0  0  0  0  0  0  0  0
   -5.0350   -1.0000    5.5580 C   0  0  0  0  0  0  0  0  0  0  0  0
   -5.5720   -0.0780    4.9000 O   0  0  0  0  0  0  0  0  0  0  0  0
   -2.3060    1.3860   -2.4240 O   0  0  0  0  0  0  0  0  0  0  0  0
   -1.6570    2.3920   -3.0840 N   0  0  0  0  0  0  0  0  0  0  0  0
   -2.2420    3.4910   -4.3710 P   0  0  0  0  0  0  0  0  0  0  0  0
   -4.0670    3.6790   -4.3840 C   0  0  0  0  0  0  0  0  0  0  0  0
   -1.3700    5.1110   -4.2320 C   0  0  0  0  0  0  0  0  0  0  0  0
    3.7120    0.4420    0.0020 C   0  0  0  0  0  0  0  0  0  0  0  0
    4.9530    0.2240    0.6130 C   0  0  0  0  0  0  0  0  0  0  0  0
    6.4880    0.4290   -0.3580 P   0  0  0  0  0  0  0  0  0  0  0  0
    7.2790   -1.1940   -0.7470 C   0  0  1  0  0  0  0  0  0  0  0  0
    6.5830   -2.3420   -0.0430 C   0  0  0  0  0  0  0  0  0  0  0  0
    7.3070   -1.3830   -2.1800 N   0  0  0  0  0  0  0  0  0  0  0  0
    8.6030   -1.1480   -0.3080 O   0  0  0  0  0  0  0  0  0  0  0  0
  1  2  1  0
  2  3  1  0
  3  4  1  0
  4  5  2  0
  4 38  1  0
  5  6  1  0
  6  7  2  0
  7  8  1  0
  7 37  1  0
  8  9  1  0
  9 10  2  0
  9 14  1  0
 10 11  1  0
 11 12  2  0
 12 13  1  0
 13 14  2  0
 13 33  1  0
 14 15  1  0
 15 16  2  3
 15 32  1  0
 16 17  1  0
 17 18  2  0
 17 25  1  0
 18 19  1  0
 19 20  2  0
 20 21  1  0
 20 24  1  0
 21 22  1  0
 22 23  1  0
 24 25  2  0
 25 26  1  0
 26 27  1  0
 27 28  1  0
 28 29  1  0
 29 30  1  0
 30 31  2  0
 32 33  1  0
 33 34  1  0
 34 35  1  0
 34 36  1  0
 37 38  2  0
 38 39  1  0
 39 40  1  0
 40 41  1  1
 40 42  1  0
 40 43  1  0
M  END
