
     RDKit          3D

 42 44  0  0  0  0  0  0  0  0999 V2000
    6.5190    1.9830    1.3720 C   0  0  0  0  0  0  0  0  0  0  0  0
    5.1020    1.8720    1.3350 O   0  0  0  0  0  0  0  0  0  0  0  0
    4.4290    1.7790    0.1020 C   0  0  0  0  0  0  0  0  0  0  0  0
    5.1330    1.7990   -0.9210 O   0  0  0  0  0  0  0  0  0  0  0  0
    3.0310    1.6720    0.0370 N   0  0  0  0  0  0  0  0  0  0  0  0
    2.3150    1.6620    1.3280 C   0  0  0  0  0  0  0  0  0  0  0  0
    0.8910    1.8890    1.0960 C   0  0  0  0  0  0  0  0  0  0  0  0
    0.2590    2.6890    1.7550 O   0  0  0  0  0  0  0  0  0  0  0  0
    0.1270    1.1320    0.0130 C   0  0  2  0  0  0  0  0  0  0  0  0
   -0.5600    2.2510   -0.7590 C   0  0  0  0  0  0  0  0  0  0  0  0
   -0.3540    3.4630   -0.5320 O   0  0  0  0  0  0  0  0  0  0  0  0
   -1.4590    1.8060   -1.7660 N   0  0  0  0  0  0  0  0  0  0  0  0
   -2.3750    0.7550   -1.2990 C   0  0  0  0  0  0  0  0  0  0  0  0
   -3.1680    0.2500   -2.1080 N   0  0  0  0  0  0  0  0  0  0  0  0
   -2.2450    0.3590    0.0500 N   0  0  0  0  0  0  0  0  0  0  0  0
   -3.3390   -0.0350    0.8690 C   0  0  0  0  0  0  0  0  0  0  0  0
   -4.7200    0.3700    0.4940 C   0  0  1  0  0  0  0  0  0  0  0  0
   -5.5670   -0.1570    1.5290 O   0  0  0  0  0  0  0  0  0  0  0  0
   -4.9560    2.2150    0.5780 P   0  0  0  0  0  0  0  0  0  0  0  0
   -5.5310    2.7600    2.0930 O   0  0  0  0  0  0  0  0  0  0  0  0
   -5.8120    2.8530   -0.7570 O   0  0  0  0  0  0  0  0  0  0  0  0
   -0.9110    0.3630    0.6790 C   0  0  2  0  0  0  0  0  0  0  0  0
   -1.2850    1.2890    1.7750 F   0  0  0  0  0  0  0  0  0  0  0  0
   -0.5910   -0.8290    1.4580 C   0  0  0  0  0  0  0  0  0  0  0  0
    0.3640   -0.6250    2.3110 O   0  0  0  0  0  0  0  0  0  0  0  0
   -1.1010   -2.0370    1.4380 O   0  0  0  0  0  0  0  0  0  0  0  0
   -1.3260   -3.1620    0.7330 C   0  0  2  0  0  0  0  0  0  0  0  0
   -2.4960   -3.8750    1.3780 C   0  0  0  0  0  0  0  0  0  0  0  0
   -2.8850   -4.9560    0.8860 O   0  0  0  0  0  0  0  0  0  0  0  0
   -3.1200   -3.3460    2.4850 O   0  0  0  0  0  0  0  0  0  0  0  0
   -0.2230   -4.2160    0.7450 C   0  0  0  0  0  0  0  0  0  0  0  0
    1.0650   -3.7060    0.6730 O   0  0  0  0  0  0  0  0  0  0  0  0
    1.8340   -3.5820   -0.4720 C   0  0  0  0  0  0  0  0  0  0  0  0
    2.9930   -4.0180   -0.6100 O   0  0  0  0  0  0  0  0  0  0  0  0
    1.1880   -2.8610   -1.6080 C   0  0  0  0  0  0  0  0  0  0  0  0
    0.6460   -1.7030   -1.0480 O   0  0  0  0  0  0  0  0  0  0  0  0
    1.6420   -0.8050   -0.6380 C   0  0  0  0  0  0  0  0  0  0  0  0
    1.1110    0.5560   -0.9160 C   0  0  1  0  0  0  0  0  0  0  0  0
    0.4800    0.4280   -2.1930 O   0  0  0  0  0  0  0  0  0  0  0  0
    2.2110    1.5880   -1.1310 C   0  0  2  0  0  0  0  0  0  0  0  0
    2.9550    1.4900   -2.4060 C   0  0  0  0  0  0  0  0  0  0  0  0
    3.7850    0.4320   -2.5980 O   0  0  0  0  0  0  0  0  0  0  0  0
  1  2  1  0
  2  3  1  0
  3  4  2  0
  3  5  1  0
  5  6  1  0
  5 40  1  0
  6  7  1  0
  7  8  2  0
  9  7  1  1
  9 10  1  0
  9 22  1  0
  9 38  1  0
 10 11  2  0
 10 12  1  0
 12 13  1  0
 13 14  2  0
 13 15  1  0
 15 16  1  0
 15 22  1  0
 16 17  1  0
 17 18  1  1
 17 19  1  0
 19 20  1  0
 19 21  1  0
 22 23  1  1
 22 24  1  0
 24 25  2  0
 24 26  1  0
 26 27  1  0
 27 28  1  1
 27 31  1  0
 28 29  2  0
 28 30  1  0
 31 32  1  0
 32 33  1  0
 33 34  2  0
 33 35  1  0
 35 36  1  0
 36 37  1  0
 37 38  1  0
 38 39  1  6
 38 40  1  0
 40 41  1  6
 41 42  1  0
M  END
