
     RDKit          3D

 41 43  0  0  0  0  0  0  0  0999 V2000
   -7.8470    3.0650    1.0820 C   0  0  0  0  0  0  0  0  0  0  0  0
   -7.4280    2.6610   -0.2680 C   0  0  2  0  0  0  0  0  0  0  0  0
   -8.4790    2.1090   -1.0430 O   0  0  0  0  0  0  0  0  0  0  0  0
   -8.7570    0.9080   -0.5650 O   0  0  0  0  0  0  0  0  0  0  0  0
   -6.4040    1.5520   -0.2450 C   0  0  0  0  0  0  0  0  0  0  0  0
   -6.1580    1.0360    0.8450 O   0  0  0  0  0  0  0  0  0  0  0  0
   -5.7700    1.1280   -1.4210 N   0  0  0  0  0  0  0  0  0  0  0  0
   -4.8320    0.0340   -1.4880 C   0  0  2  0  0  0  0  0  0  0  0  0
   -4.4240   -0.1700   -2.8070 O   0  0  0  0  0  0  0  0  0  0  0  0
   -5.5980   -1.2600   -1.1080 C   0  0  0  0  0  0  0  0  0  0  0  0
   -4.5170   -2.1050   -0.9420 O   0  0  0  0  0  0  0  0  0  0  0  0
   -3.5890   -1.3240   -0.2520 C   0  0  1  0  0  0  0  0  0  0  0  0
   -3.9030   -1.5270    1.2140 C   0  0  0  0  0  0  0  0  0  0  0  0
   -3.1550   -0.4230    1.9550 C   0  0  0  0  0  0  0  0  0  0  0  0
   -1.8210   -0.2640    1.3500 C   0  0  2  0  0  0  0  0  0  0  0  0
   -1.6230    0.7670    0.4490 O   0  0  0  0  0  0  0  0  0  0  0  0
   -1.3910   -1.5910    0.6970 C   0  0  2  0  0  0  0  0  0  0  0  0
   -0.0100   -1.4300    0.6780 O   0  0  0  0  0  0  0  0  0  0  0  0
    0.8130   -0.9160   -0.2680 C   0  0  0  0  0  0  0  0  0  0  0  0
    0.3650   -0.5370   -1.3500 O   0  0  0  0  0  0  0  0  0  0  0  0
    2.2180   -0.8080    0.0770 N   0  0  0  0  0  0  0  0  0  0  0  0
    2.6620   -1.3120    1.3820 C   0  0  0  0  0  0  0  0  0  0  0  0
    4.0190   -1.9400    1.1990 C   0  0  0  0  0  0  0  0  0  0  0  0
    4.2960   -3.0120    1.6790 O   0  0  0  0  0  0  0  0  0  0  0  0
    5.0360   -1.1960    0.4300 C   0  0  1  0  0  0  0  0  0  0  0  0
    6.2250   -1.0300    1.1590 N   0  0  0  0  0  0  0  0  0  0  0  0
    7.2100   -0.1260    0.9900 C   0  0  0  0  0  0  0  0  0  0  0  0
    7.8410   -0.1520   -0.4330 C   0  0  0  0  0  0  0  0  0  0  0  0
    8.8880    0.7070   -0.2610 O   0  0  0  0  0  0  0  0  0  0  0  0
    8.6930    2.3130   -0.0910 P   0  0  0  0  0  0  0  0  0  0  0  0
   10.0770    3.2330    0.0220 O   0  0  0  0  0  0  0  0  0  0  0  0
    7.2460    3.1020   -0.2230 O   0  0  0  0  0  0  0  0  0  0  0  0
    5.3680   -2.0390   -0.7450 C   0  0  0  0  0  0  0  0  0  0  0  0
    5.7470   -1.7170   -1.8980 O   0  0  0  0  0  0  0  0  0  0  0  0
    5.2520   -3.4750   -0.5930 O   0  0  0  0  0  0  0  0  0  0  0  0
    4.3920    0.0830    0.0270 C   0  0  0  0  0  0  0  0  0  0  0  0
    4.7340    1.2250    0.3550 N   0  0  0  0  0  0  0  0  0  0  0  0
    4.1240    2.3630   -0.0100 F   0  0  0  0  0  0  0  0  0  0  0  0
    3.1470   -0.1500   -0.8020 C   0  0  0  0  0  0  0  0  0  0  0  0
   -2.1390   -1.7200   -0.6050 C   0  0  0  0  0  0  0  0  0  0  0  0
   -3.8440    0.0100   -0.5660 O   0  0  0  0  0  0  0  0  0  0  0  0
  2  1  1  1
  2  3  1  0
  2  5  1  0
  3  4  1  0
  5  6  2  0
  5  7  1  0
  7  8  1  0
  8  9  1  6
  8 10  1  0
  8 41  1  0
 10 11  1  0
 11 12  1  0
 12 13  1  1
 12 40  1  0
 12 41  1  0
 13 14  1  0
 14 15  1  0
 15 16  1  6
 15 17  1  0
 17 18  1  6
 17 40  1  0
 18 19  1  0
 19 20  2  0
 19 21  1  0
 21 22  1  0
 21 39  1  0
 22 23  1  0
 23 24  2  0
 23 25  1  0
 25 26  1  1
 25 33  1  0
 25 36  1  0
 26 27  1  0
 27 28  1  0
 28 29  1  0
 29 30  1  0
 30 31  1  0
 30 32  1  0
 33 34  2  0
 33 35  1  0
 36 37  2  3
 36 39  1  0
 37 38  1  0
M  END
