
     RDKit          3D

 48 53  0  0  0  0  0  0  0  0999 V2000
    5.8580   -1.4090   -2.7620 C   0  0  0  0  0  0  0  0  0  0  0  0
    5.6450    0.0850   -2.9010 C   0  0  1  0  0  0  0  0  0  0  0  0
    5.7440    0.4370   -4.3720 C   0  0  0  0  0  0  0  0  0  0  0  0
    4.3560    0.4690   -2.3860 N   0  0  0  0  0  0  0  0  0  0  0  0
    3.9870    0.4060   -1.0360 C   0  0  0  0  0  0  0  0  0  0  0  0
    2.6790    0.5910   -0.5690 C   0  0  0  0  0  0  0  0  0  0  0  0
    2.3350    0.5570    0.7470 C   0  0  0  0  0  0  0  0  0  0  0  0
    0.9230    0.6600    1.1610 C   0  0  0  0  0  0  0  0  0  0  0  0
    0.5510    0.9880    2.4420 C   0  0  0  0  0  0  0  0  0  0  0  0
   -0.8590    0.9920    2.4360 C   0  0  0  0  0  0  0  0  0  0  0  0
   -1.2610    0.6660    1.1510 C   0  0  0  0  0  0  0  0  0  0  0  0
   -2.6110    0.5520    0.6370 C   0  0  0  0  0  0  0  0  0  0  0  0
   -2.8700   -0.3110   -0.3840 C   0  0  0  0  0  0  0  0  0  0  0  0
   -1.8740   -1.1200   -0.9500 C   0  0  0  0  0  0  0  0  0  0  0  0
   -2.0570   -1.9770   -1.9170 C   0  0  0  0  0  0  0  0  0  0  0  0
   -0.8700   -2.7310   -2.3950 C   0  0  0  0  0  0  0  0  0  0  0  0
   -0.7370   -3.6480   -3.3040 C   0  0  0  0  0  0  0  0  0  0  0  0
    0.7090   -4.0810   -3.3960 C   0  0  0  0  0  0  0  0  0  0  0  0
    1.3680   -3.2210   -2.5680 O   0  0  0  0  0  0  0  0  0  0  0  0
    0.4760   -2.5290   -1.8040 C   0  0  0  0  0  0  0  0  0  0  0  0
   -3.3820   -2.3340   -2.3770 C   0  0  0  0  0  0  0  0  0  0  0  0
   -3.6870   -2.6380   -3.6910 C   0  0  0  0  0  0  0  0  0  0  0  0
   -4.9190   -3.1110   -4.0180 C   0  0  0  0  0  0  0  0  0  0  0  0
   -5.9370   -3.3230   -3.1180 C   0  0  0  0  0  0  0  0  0  0  0  0
   -5.6440   -3.0230   -1.8030 C   0  0  0  0  0  0  0  0  0  0  0  0
   -4.3980   -2.5420   -1.4450 C   0  0  0  0  0  0  0  0  0  0  0  0
   -3.7800    1.2360    1.1680 C   0  0  0  0  0  0  0  0  0  0  0  0
   -3.7730    2.1560    2.0850 C   0  0  0  0  0  0  0  0  0  0  0  0
   -4.9510    2.8480    2.6170 C   0  0  2  0  0  0  0  0  0  0  0  0
   -4.8460    4.2930    2.0520 C   0  0  0  0  0  0  0  0  0  0  0  0
   -4.9630    2.9070    4.1090 C   0  0  0  0  0  0  0  0  0  0  0  0
   -6.2180    2.3480    2.0710 C   0  0  0  0  0  0  0  0  0  0  0  0
   -7.4340    2.8930    2.5310 C   0  0  0  0  0  0  0  0  0  0  0  0
   -8.6130    2.4210    1.9550 C   0  0  0  0  0  0  0  0  0  0  0  0
   -8.5890    1.4660    0.9790 C   0  0  0  0  0  0  0  0  0  0  0  0
   -7.4240    0.9420    0.5380 C   0  0  0  0  0  0  0  0  0  0  0  0
   -6.2290    1.3980    1.1030 C   0  0  0  0  0  0  0  0  0  0  0  0
   -5.0290    0.8590    0.6660 O   0  0  0  0  0  0  0  0  0  0  0  0
   -0.1400    0.4940    0.4900 O   0  0  0  0  0  0  0  0  0  0  0  0
    3.3090    0.3320    1.6710 N   0  0  0  0  0  0  0  0  0  0  0  0
    4.5990    0.1410    1.2480 C   0  0  0  0  0  0  0  0  0  0  0  0
    5.6260   -0.2190    2.2360 C   0  0  2  0  0  0  0  0  0  0  0  0
    4.9510   -0.5580    3.5430 C   0  0  0  0  0  0  0  0  0  0  0  0
    6.5220    0.8060    2.4300 O   0  0  0  0  0  0  0  0  0  0  0  0
    7.8210    0.4240    2.0930 C   0  0  0  0  0  0  0  0  0  0  0  0
    8.7820    1.5240    2.4280 C   0  0  0  0  0  0  0  0  0  0  0  0
   10.1020    1.1540    2.0900 O   0  0  0  0  0  0  0  0  0  0  0  0
    4.9480    0.1760   -0.0750 C   0  0  0  0  0  0  0  0  0  0  0  0
  2  1  1  6
  2  3  1  0
  2  4  1  0
  4  5  1  0
  5  6  2  0
  5 48  1  0
  6  7  1  0
  7  8  1  0
  7 40  2  0
  8  9  2  0
  8 39  1  0
  9 10  1  0
 10 11  2  0
 11 12  1  0
 11 39  1  0
 12 13  2  3
 12 27  1  0
 13 14  1  0
 14 15  2  3
 15 16  1  0
 15 21  1  0
 16 17  2  0
 16 20  1  0
 17 18  1  0
 18 19  1  0
 19 20  1  0
 21 22  2  0
 21 26  1  0
 22 23  1  0
 23 24  2  0
 24 25  1  0
 25 26  2  0
 27 28  2  0
 27 38  1  0
 28 29  1  0
 29 30  1  6
 29 31  1  0
 29 32  1  0
 32 33  2  0
 32 37  1  0
 33 34  1  0
 34 35  2  0
 35 36  1  0
 36 37  2  0
 37 38  1  0
 40 41  1  0
 41 42  1  0
 41 48  2  0
 42 43  1  1
 42 44  1  0
 44 45  1  0
 45 46  1  0
 46 47  1  0
M  END
