
     RDKit          3D

 47 52  0  0  0  0  0  0  0  0999 V2000
   14.3700    1.2550   -1.2990 C   0  0  0  0  0  0  0  0  0  0  0  0
   12.8600    1.1470   -1.3310 C   0  0  0  0  0  0  0  0  0  0  0  0
   12.3150    0.6450   -0.0090 C   0  0  0  0  0  0  0  0  0  0  0  0
   10.7930    0.5720   -0.1690 C   0  0  0  0  0  0  0  0  0  0  0  0
   10.2160    0.1180    0.9920 O   0  0  0  0  0  0  0  0  0  0  0  0
    8.8350    0.0500    0.8360 C   0  0  1  0  0  0  0  0  0  0  0  0
    8.4690   -1.4110    1.0180 C   0  0  0  0  0  0  0  0  0  0  0  0
    7.1110   -1.6220    1.6010 C   0  0  0  0  0  0  0  0  0  0  0  0
    6.2680   -0.4690    1.4330 N   0  0  0  0  0  0  0  0  0  0  0  0
    5.0060   -0.6080    0.8330 C   0  0  0  0  0  0  0  0  0  0  0  0
    4.6270   -1.7450    0.4380 O   0  0  0  0  0  0  0  0  0  0  0  0
    4.1410    0.5780    0.6740 C   0  0  0  0  0  0  0  0  0  0  0  0
    2.8710    0.1540    0.0100 C   0  0  0  0  0  0  0  0  0  0  0  0
    1.8160   -0.3320    0.7580 C   0  0  0  0  0  0  0  0  0  0  0  0
    0.6320   -0.7290    0.1680 C   0  0  0  0  0  0  0  0  0  0  0  0
    0.4390   -0.6600   -1.2010 C   0  0  0  0  0  0  0  0  0  0  0  0
   -0.8250   -1.0940   -1.7900 C   0  0  0  0  0  0  0  0  0  0  0  0
   -0.9730   -1.0000   -3.0350 O   0  0  0  0  0  0  0  0  0  0  0  0
   -1.8630   -1.6020   -1.0630 O   0  0  0  0  0  0  0  0  0  0  0  0
   -3.1040   -2.0430   -1.5380 C   0  0  1  0  0  0  0  0  0  0  0  0
   -3.3080   -3.5200   -1.3680 C   0  0  0  0  0  0  0  0  0  0  0  0
   -4.2430   -1.3090   -0.9860 C   0  0  0  0  0  0  0  0  0  0  0  0
   -5.3440   -1.9730   -0.5060 C   0  0  0  0  0  0  0  0  0  0  0  0
   -6.4400   -1.3040    0.0250 C   0  0  0  0  0  0  0  0  0  0  0  0
   -6.4450    0.0930    0.0840 C   0  0  0  0  0  0  0  0  0  0  0  0
   -5.3560    0.7830   -0.3890 C   0  0  0  0  0  0  0  0  0  0  0  0
   -4.2850    0.0780   -0.9110 C   0  0  0  0  0  0  0  0  0  0  0  0
   -5.3880    2.2480   -0.3170 C   0  0  1  0  0  0  0  0  0  0  0  0
   -4.5090    2.7330    0.8260 C   0  0  0  0  0  0  0  0  0  0  0  0
   -3.8950    3.7290   -0.1070 C   0  0  0  0  0  0  0  0  0  0  0  0
   -4.5160    3.0080   -1.2570 C   0  0  0  0  0  0  0  0  0  0  0  0
   -6.7960    2.7190   -0.1770 C   0  0  0  0  0  0  0  0  0  0  0  0
   -7.3470    2.1020    0.9230 O   0  0  0  0  0  0  0  0  0  0  0  0
   -7.6540    0.7570    0.6760 C   0  0  2  0  0  0  0  0  0  0  0  0
   -7.9740    0.1670    2.0260 C   0  0  0  0  0  0  0  0  0  0  0  0
   -6.7590    0.4240    2.9010 C   0  0  0  0  0  0  0  0  0  0  0  0
   -8.7870    0.6250   -0.1920 N   0  0  0  0  0  0  0  0  0  0  0  0
   -9.3720   -0.6290   -0.5150 C   0  0  0  0  0  0  0  0  0  0  0  0
   -9.1180   -1.2330   -1.7460 C   0  0  0  0  0  0  0  0  0  0  0  0
   -9.7070   -2.4320   -2.0380 C   0  0  0  0  0  0  0  0  0  0  0  0
  -10.5600   -3.1020   -1.1710 C   0  0  0  0  0  0  0  0  0  0  0  0
  -10.7960   -2.4890    0.0330 C   0  0  0  0  0  0  0  0  0  0  0  0
  -10.2170   -1.2840    0.3520 C   0  0  0  0  0  0  0  0  0  0  0  0
    1.4880   -0.1760   -1.9480 C   0  0  0  0  0  0  0  0  0  0  0  0
    2.6810    0.2240   -1.3560 C   0  0  0  0  0  0  0  0  0  0  0  0
    6.7100    0.8320    1.8750 C   0  0  0  0  0  0  0  0  0  0  0  0
    8.1980    0.8470    1.9420 C   0  0  0  0  0  0  0  0  0  0  0  0
  1  2  1  0
  2  3  1  0
  3  4  1  0
  4  5  1  0
  6  5  1  1
  6  7  1  0
  6 47  1  0
  7  8  1  0
  8  9  1  0
  9 10  1  0
  9 46  1  0
 10 11  2  0
 10 12  1  0
 12 13  1  0
 13 14  2  0
 13 45  1  0
 14 15  1  0
 15 16  2  0
 16 17  1  0
 16 44  1  0
 17 18  2  0
 17 19  1  0
 19 20  1  0
 20 21  1  1
 20 22  1  0
 22 23  2  0
 22 27  1  0
 23 24  1  0
 24 25  2  0
 25 26  1  0
 25 34  1  0
 26 27  2  0
 26 28  1  0
 28 29  1  1
 28 31  1  0
 28 32  1  0
 29 30  1  0
 30 31  1  0
 32 33  1  0
 33 34  1  0
 34 35  1  1
 34 37  1  0
 35 36  1  0
 37 38  1  0
 38 39  2  0
 38 43  1  0
 39 40  1  0
 40 41  2  0
 41 42  1  0
 42 43  2  0
 44 45  2  0
 46 47  1  0
M  END
