
     RDKit          3D

 48 53  0  0  0  0  0  0  0  0999 V2000
   -4.5200   -5.1250    2.7830 C   0  0  0  0  0  0  0  0  0  0  0  0
   -4.5040   -4.1950    1.7300 O   0  0  0  0  0  0  0  0  0  0  0  0
   -5.3550   -4.3860    0.6550 C   0  0  0  0  0  0  0  0  0  0  0  0
   -6.2060   -5.4690    0.6190 C   0  0  0  0  0  0  0  0  0  0  0  0
   -7.0490   -5.6430   -0.4630 C   0  0  0  0  0  0  0  0  0  0  0  0
   -7.0140   -4.7200   -1.4810 C   0  0  0  0  0  0  0  0  0  0  0  0
   -6.1560   -3.6440   -1.4280 C   0  0  0  0  0  0  0  0  0  0  0  0
   -5.2990   -3.4370   -0.3650 C   0  0  0  0  0  0  0  0  0  0  0  0
   -4.3900   -2.3610   -0.2530 N   0  0  0  0  0  0  0  0  0  0  0  0
   -3.0010   -2.6010   -0.1540 C   0  0  0  0  0  0  0  0  0  0  0  0
   -2.5690   -3.8040   -0.1490 O   0  0  0  0  0  0  0  0  0  0  0  0
   -2.0280   -1.5110   -0.0550 C   0  0  0  0  0  0  0  0  0  0  0  0
   -0.7660   -1.7540    0.0530 C   0  0  0  0  0  0  0  0  0  0  0  0
    0.2250   -0.7090    0.1520 C   0  0  0  0  0  0  0  0  0  0  0  0
   -0.0890    0.6060    0.0700 C   0  0  0  0  0  0  0  0  0  0  0  0
    0.8980    1.5590    0.2010 C   0  0  0  0  0  0  0  0  0  0  0  0
    2.2270    1.1710    0.4190 C   0  0  0  0  0  0  0  0  0  0  0  0
    2.5080   -0.1550    0.4970 C   0  0  0  0  0  0  0  0  0  0  0  0
    1.5270   -1.1060    0.3660 C   0  0  0  0  0  0  0  0  0  0  0  0
    1.8710   -2.5660    0.4630 C   0  0  0  0  0  0  0  0  0  0  0  0
    3.2520    2.1340    0.5710 N   0  0  0  0  0  0  0  0  0  0  0  0
    4.6010    1.7670    0.3570 C   0  0  0  0  0  0  0  0  0  0  0  0
    5.0030    0.9050   -0.6410 C   0  0  0  0  0  0  0  0  0  0  0  0
    6.3170    0.5300   -0.8040 C   0  0  0  0  0  0  0  0  0  0  0  0
    7.3170    1.0010    0.0290 C   0  0  0  0  0  0  0  0  0  0  0  0
    8.7020    0.5910   -0.1320 C   0  0  0  0  0  0  0  0  0  0  0  0
    9.5660    0.4870    0.9390 C   0  0  0  0  0  0  0  0  0  0  0  0
   10.8790    0.0860    0.7770 C   0  0  0  0  0  0  0  0  0  0  0  0
   11.3210   -0.2170   -0.5060 C   0  0  0  0  0  0  0  0  0  0  0  0
   12.7480   -0.6590   -0.6750 C   0  0  0  0  0  0  0  0  0  0  0  0
   10.4900   -0.1270   -1.6040 C   0  0  0  0  0  0  0  0  0  0  0  0
    9.1740    0.2840   -1.3850 C   0  0  0  0  0  0  0  0  0  0  0  0
    6.9230    1.8640    1.0270 C   0  0  0  0  0  0  0  0  0  0  0  0
    5.6130    2.2480    1.2030 C   0  0  0  0  0  0  0  0  0  0  0  0
    2.8230    3.4810    0.9320 C   0  0  0  0  0  0  0  0  0  0  0  0
    1.6980    3.8310   -0.0320 C   0  0  0  0  0  0  0  0  0  0  0  0
    0.6450    2.9100    0.1280 O   0  0  0  0  0  0  0  0  0  0  0  0
   -4.8860   -1.0350   -0.2240 C   0  0  0  0  0  0  0  0  0  0  0  0
   -5.1090   -0.3660    0.9740 C   0  0  0  0  0  0  0  0  0  0  0  0
   -5.5880    0.9270    0.9620 C   0  0  0  0  0  0  0  0  0  0  0  0
   -5.8600    1.6010   -0.2090 C   0  0  0  0  0  0  0  0  0  0  0  0
   -6.3770    3.0200   -0.1200 C   0  0  0  0  0  0  0  0  0  0  0  0
   -6.7110    3.5020   -1.3470 O   0  0  0  0  0  0  0  0  0  0  0  0
   -7.1520    4.7840   -1.3980 C   0  0  0  0  0  0  0  0  0  0  0  0
   -8.3790    5.1350   -0.6310 C   0  0  0  0  0  0  0  0  0  0  0  0
   -8.2530    4.9220    0.7210 O   0  0  0  0  0  0  0  0  0  0  0  0
   -5.6450    0.9570   -1.3980 C   0  0  0  0  0  0  0  0  0  0  0  0
   -5.1600   -0.3560   -1.3950 C   0  0  0  0  0  0  0  0  0  0  0  0
  1  2  1  0
  2  3  1  0
  3  4  2  0
  3  8  1  0
  4  5  1  0
  5  6  2  0
  6  7  1  0
  7  8  2  0
  8  9  1  0
  9 10  1  0
  9 38  1  0
 10 11  2  0
 10 12  1  0
 12 13  2  3
 13 14  1  0
 14 15  2  0
 14 19  1  0
 15 16  1  0
 16 17  2  0
 16 37  1  0
 17 18  1  0
 17 21  1  0
 18 19  2  0
 19 20  1  0
 21 22  1  0
 21 35  1  0
 22 23  2  0
 22 34  1  0
 23 24  1  0
 24 25  2  0
 25 26  1  0
 25 33  1  0
 26 27  2  0
 26 32  1  0
 27 28  1  0
 28 29  2  0
 29 30  1  0
 29 31  1  0
 31 32  2  0
 33 34  2  0
 35 36  1  0
 36 37  1  0
 38 39  2  0
 38 48  1  0
 39 40  1  0
 40 41  2  0
 41 42  1  0
 41 47  1  0
 42 43  1  0
 43 44  1  0
 44 45  1  0
 45 46  1  0
 47 48  2  0
M  END
