
     RDKit          3D

 21 22  0  0  0  0  0  0  0  0999 V2000
   -0.4870    1.8040    1.9510 C   0  0  0  0  0  0  0  0  0  0  0  0
   -1.1620    2.0560    0.8610 C   0  0  0  0  0  0  0  0  0  0  0  0
   -1.5720    1.1320   -0.1320 C   0  0  0  0  0  0  0  0  0  0  0  0
   -2.3350    1.6550   -1.1400 C   0  0  0  0  0  0  0  0  0  0  0  0
   -2.7040    3.0710   -1.1940 C   0  0  0  0  0  0  0  0  0  0  0  0
   -1.3910   -0.2750   -0.1970 C   0  0  0  0  0  0  0  0  0  0  0  0
   -2.4440   -1.0680   -0.6170 N   0  0  0  0  0  0  0  0  0  0  0  0
   -2.3250   -2.3620   -0.8130 C   0  0  0  0  0  0  0  0  0  0  0  0
   -3.4950   -3.1590   -1.2640 C   0  0  0  0  0  0  0  0  0  0  0  0
   -1.1190   -3.0140   -0.6070 C   0  0  0  0  0  0  0  0  0  0  0  0
   -1.0260   -4.7310   -0.8810 Cl  0  0  0  0  0  0  0  0  0  0  0  0
   -0.1000   -2.2860   -0.2110 N   0  0  0  0  0  0  0  0  0  0  0  0
   -0.2210   -0.9150   -0.0040 C   0  0  0  0  0  0  0  0  0  0  0  0
    1.0410   -0.3490    0.2970 N   0  0  0  0  0  0  0  0  0  0  0  0
    1.5120    0.6610   -0.6040 C   0  0  0  0  0  0  0  0  0  0  0  0
    2.5710    1.5430    0.0390 C   0  0  0  0  0  0  0  0  0  0  0  0
    3.7860    0.8340    0.2930 N   0  0  0  0  0  0  0  0  0  0  0  0
    4.0360   -0.4800    0.7710 C   0  0  0  0  0  0  0  0  0  0  0  0
    5.2650   -0.7660    0.9820 O   0  0  0  0  0  0  0  0  0  0  0  0
    3.0370   -1.5320    1.0460 C   0  0  0  0  0  0  0  0  0  0  0  0
    1.6960   -0.9360    1.4360 C   0  0  0  0  0  0  0  0  0  0  0  0
  1  2  2  0
  2  3  1  0
  3  4  2  3
  3  6  1  0
  4  5  1  0
  6  7  2  0
  6 13  1  0
  7  8  1  0
  8  9  1  0
  8 10  2  0
 10 11  1  0
 10 12  1  0
 12 13  2  0
 13 14  1  0
 14 15  1  0
 14 21  1  0
 15 16  1  0
 16 17  1  0
 17 18  1  0
 18 19  2  0
 18 20  1  0
 20 21  1  0
M  END
