
     RDKit          3D

 21 22  0  0  0  0  0  0  0  0999 V2000
   -4.7690   -0.7260    0.6590 C   0  0  0  0  0  0  0  0  0  0  0  0
   -3.3850   -1.1560    0.4360 C   0  0  0  0  0  0  0  0  0  0  0  0
   -2.3470   -0.3580    0.0960 C   0  0  0  0  0  0  0  0  0  0  0  0
   -2.5880    1.0610   -0.0580 C   0  0  0  0  0  0  0  0  0  0  0  0
   -1.8990    1.9950   -0.5880 C   0  0  0  0  0  0  0  0  0  0  0  0
   -0.4040    2.1280   -1.3870 Cl  0  0  0  0  0  0  0  0  0  0  0  0
   -3.7470    1.6700    0.8020 C   0  0  0  0  0  0  0  0  0  0  0  0
   -3.5020    3.1580    0.7590 N   0  0  0  0  0  0  0  0  0  0  0  0
   -1.0600   -0.9910   -0.0360 N   0  0  0  0  0  0  0  0  0  0  0  0
    0.1740   -0.2690    0.0330 C   0  0  0  0  0  0  0  0  0  0  0  0
    1.2750   -0.7440   -0.8230 C   0  0  0  0  0  0  0  0  0  0  0  0
    1.1480   -1.7170   -1.6100 O   0  0  0  0  0  0  0  0  0  0  0  0
    2.5510   -0.1230   -0.8040 N   0  0  0  0  0  0  0  0  0  0  0  0
    3.6030   -0.6050   -1.6430 C   0  0  0  0  0  0  0  0  0  0  0  0
    4.9290   -0.7590   -0.9460 C   0  0  0  0  0  0  0  0  0  0  0  0
    5.0570    0.0680    0.2970 C   0  0  0  0  0  0  0  0  0  0  0  0
    4.2840    1.3310    0.1120 C   0  0  0  0  0  0  0  0  0  0  0  0
    2.7870    0.9900    0.0680 C   0  0  0  0  0  0  0  0  0  0  0  0
   -0.8890   -2.4170    0.1530 C   0  0  0  0  0  0  0  0  0  0  0  0
   -1.9300   -3.1550    0.4670 C   0  0  0  0  0  0  0  0  0  0  0  0
   -3.2000   -2.5720    0.6240 N   0  0  0  0  0  0  0  0  0  0  0  0
  1  2  1  0
  2  3  2  0
  2 21  1  0
  3  4  1  0
  3  9  1  0
  4  5  2  3
  4  7  1  0
  5  6  1  0
  7  8  1  0
  9 10  1  0
  9 19  1  0
 10 11  1  0
 11 12  2  0
 11 13  1  0
 13 14  1  0
 13 18  1  0
 14 15  1  0
 15 16  1  0
 16 17  1  0
 17 18  1  0
 19 20  2  0
 20 21  1  0
M  END
