
     RDKit          3D

 21 22  0  0  0  0  0  0  0  0999 V2000
    6.5080    1.3700   -0.6400 C   0  0  0  0  0  0  0  0  0  0  0  0
    5.6340    0.9410    0.3520 C   0  0  0  0  0  0  0  0  0  0  0  0
    4.6620    0.4420    1.0070 C   0  0  0  0  0  0  0  0  0  0  0  0
    3.5340   -0.2120    0.2050 C   0  0  0  0  0  0  0  0  0  0  0  0
    2.2670   -0.0070    0.3150 N   0  0  0  0  0  0  0  0  0  0  0  0
    1.3480   -0.8830   -0.2240 C   0  0  0  0  0  0  0  0  0  0  0  0
    0.0030   -0.7630   -0.4680 N   0  0  0  0  0  0  0  0  0  0  0  0
   -0.9580    0.2740   -0.5020 C   0  0  0  0  0  0  0  0  0  0  0  0
   -2.2520    0.0520    0.1480 C   0  0  0  0  0  0  0  0  0  0  0  0
   -3.4510    0.1520   -0.5580 C   0  0  0  0  0  0  0  0  0  0  0  0
   -3.3790   -0.0130   -2.0360 C   0  0  0  0  0  0  0  0  0  0  0  0
   -4.6760    0.2470    0.0910 C   0  0  0  0  0  0  0  0  0  0  0  0
   -4.7040    0.2310    1.4320 C   0  0  0  0  0  0  0  0  0  0  0  0
   -6.0650    0.3490    2.0730 C   0  0  0  0  0  0  0  0  0  0  0  0
   -3.5800    0.1270    2.1410 N   0  0  0  0  0  0  0  0  0  0  0  0
   -2.3450    0.0400    1.5420 C   0  0  0  0  0  0  0  0  0  0  0  0
   -1.3830   -0.0520    2.3040 O   0  0  0  0  0  0  0  0  0  0  0  0
    1.9220   -1.9390   -0.8640 N   0  0  0  0  0  0  0  0  0  0  0  0
    3.1760   -2.2280   -1.0250 C   0  0  0  0  0  0  0  0  0  0  0  0
    4.0810   -1.3270   -0.4590 C   0  0  0  0  0  0  0  0  0  0  0  0
    5.7670   -1.5740   -0.5370 Cl  0  0  0  0  0  0  0  0  0  0  0  0
  1  2  1  0
  2  3  2  3
  3  4  1  0
  4  5  2  0
  4 20  1  0
  5  6  1  0
  6  7  1  0
  6 18  2  0
  7  8  1  0
  8  9  1  0
  9 10  2  0
  9 16  1  0
 10 11  1  0
 10 12  1  0
 12 13  2  0
 13 14  1  0
 13 15  1  0
 15 16  1  0
 16 17  2  0
 18 19  1  0
 19 20  2  0
 20 21  1  0
M  END
