
     RDKit          3D

 20 20  0  0  0  0  0  0  0  0999 V2000
   -4.5710    0.1080   -0.6310 C   0  0  0  0  0  0  0  0  0  0  0  0
   -3.2140   -0.0650    0.0410 C   0  0  2  0  0  0  0  0  0  0  0  0
   -3.0090   -1.4380    0.1450 O   0  0  0  0  0  0  0  0  0  0  0  0
   -3.3120    0.4770    1.4460 C   0  0  0  0  0  0  0  0  0  0  0  0
   -3.5080    1.8530    1.4100 O   0  0  0  0  0  0  0  0  0  0  0  0
   -2.1250    0.6110   -0.7580 C   0  0  0  0  0  0  0  0  0  0  0  0
   -0.8200    0.4180   -0.0710 C   0  0  2  0  0  0  0  0  0  0  0  0
    0.2470    1.0150   -0.7570 O   0  0  0  0  0  0  0  0  0  0  0  0
    1.3760    0.5220   -0.0360 C   0  0  2  0  0  0  0  0  0  0  0  0
    2.5190    0.6350   -0.9680 C   0  0  0  0  0  0  0  0  0  0  0  0
    3.8520    0.2020   -0.4760 C   0  0  0  0  0  0  0  0  0  0  0  0
    4.3300    0.9580    0.7000 C   0  0  0  0  0  0  0  0  0  0  0  0
    3.6680    1.8820    1.2000 O   0  0  0  0  0  0  0  0  0  0  0  0
    5.5550    0.6090    1.2410 O   0  0  0  0  0  0  0  0  0  0  0  0
    0.9170   -0.8170    0.3630 C   0  0  2  0  0  0  0  0  0  0  0  0
    0.9430   -0.8670    1.7870 O   0  0  0  0  0  0  0  0  0  0  0  0
    1.6990   -1.9440   -0.1460 C   0  0  0  0  0  0  0  0  0  0  0  0
    1.8210   -2.1370   -1.5330 N   0  0  0  0  0  0  0  0  0  0  0  0
    2.2540   -2.7330    0.6310 O   0  0  0  0  0  0  0  0  0  0  0  0
   -0.4180   -0.8960    0.0230 O   0  0  0  0  0  0  0  0  0  0  0  0
  2  1  1  6
  2  3  1  0
  2  4  1  0
  2  6  1  0
  4  5  1  0
  7  6  1  6
  7  8  1  0
  7 20  1  0
  8  9  1  0
  9 10  1  6
  9 15  1  0
 10 11  1  0
 11 12  1  0
 12 13  2  0
 12 14  1  0
 15 16  1  1
 15 17  1  0
 15 20  1  0
 17 18  1  0
 17 19  2  0
M  END
