
     RDKit          3D

 20 20  0  0  0  0  0  0  0  0999 V2000
   -0.3680   -0.4510   -2.0920 C   0  0  0  0  0  0  0  0  0  0  0  0
   -1.2380   -0.3360   -0.8840 C   0  0  2  0  0  0  0  0  0  0  0  0
   -2.2220   -1.4940   -0.7990 C   0  0  0  0  0  0  0  0  0  0  0  0
   -3.0140   -1.4720   -1.9340 O   0  0  0  0  0  0  0  0  0  0  0  0
   -1.8780    1.0220   -0.7790 C   0  0  1  0  0  0  0  0  0  0  0  0
   -3.2760    1.0010   -0.8290 O   0  0  0  0  0  0  0  0  0  0  0  0
   -1.2740    1.1890    0.5770 C   0  0  1  0  0  0  0  0  0  0  0  0
   -2.2380    1.2310    1.7320 C   0  0  0  0  0  0  0  0  0  0  0  0
   -3.1940    2.3590    1.5990 C   0  0  0  0  0  0  0  0  0  0  0  0
   -4.0810    2.5540    2.4680 O   0  0  0  0  0  0  0  0  0  0  0  0
   -3.1720    3.2530    0.5310 O   0  0  0  0  0  0  0  0  0  0  0  0
   -0.5250   -0.1170    0.4270 C   0  0  1  0  0  0  0  0  0  0  0  0
   -0.9500   -1.0060    1.4150 O   0  0  0  0  0  0  0  0  0  0  0  0
    0.8810    0.0950    0.3510 N   0  0  0  0  0  0  0  0  0  0  0  0
    1.8290   -0.9620    0.2070 C   0  0  0  0  0  0  0  0  0  0  0  0
    1.4450   -2.1450    0.1410 O   0  0  0  0  0  0  0  0  0  0  0  0
    3.1790   -0.7010    0.1390 O   0  0  0  0  0  0  0  0  0  0  0  0
    4.1780   -1.6660   -0.0010 C   0  0  0  0  0  0  0  0  0  0  0  0
    5.5230   -0.9270   -0.0330 C   0  0  0  0  0  0  0  0  0  0  0  0
    5.5880   -0.0430   -1.0800 O   0  0  0  0  0  0  0  0  0  0  0  0
  2  1  1  6
  2  3  1  0
  2  5  1  0
  2 12  1  0
  3  4  1  0
  5  6  1  1
  5  7  1  0
  7  8  1  1
  7 12  1  0
  8  9  1  0
  9 10  2  0
  9 11  1  0
 12 13  1  1
 12 14  1  0
 14 15  1  0
 15 16  2  0
 15 17  1  0
 17 18  1  0
 18 19  1  0
 19 20  1  0
M  END
