
     RDKit          3D

 20 20  0  0  0  0  0  0  0  0999 V2000
   -0.5810    1.3720   -0.9840 O   0  0  0  0  0  0  0  0  0  0  0  0
   -1.2170    0.3400   -0.6300 C   0  0  0  0  0  0  0  0  0  0  0  0
   -0.7940   -0.4310    0.4780 N   0  0  0  0  0  0  0  0  0  0  0  0
    0.3880   -0.0640    1.2520 C   0  0  1  0  0  0  0  0  0  0  0  0
    0.3170    1.2120    1.7460 O   0  0  0  0  0  0  0  0  0  0  0  0
    0.5640   -1.0940    2.3670 C   0  0  0  0  0  0  0  0  0  0  0  0
    1.0510   -2.3630    1.7330 C   0  0  0  0  0  0  0  0  0  0  0  0
    0.6910   -2.3790    0.4080 O   0  0  0  0  0  0  0  0  0  0  0  0
    1.4530   -1.5170   -0.3780 C   0  0  0  0  0  0  0  0  0  0  0  0
    1.5970   -0.1940    0.3620 C   0  0  2  0  0  0  0  0  0  0  0  0
    2.7410   -0.1010    1.0740 O   0  0  0  0  0  0  0  0  0  0  0  0
    3.6740    0.8210    0.7670 C   0  0  0  0  0  0  0  0  0  0  0  0
    3.1050    2.2100    0.9070 C   0  0  0  0  0  0  0  0  0  0  0  0
    4.0540    3.1890    0.5960 O   0  0  0  0  0  0  0  0  0  0  0  0
   -2.4270   -0.0880   -1.3730 C   0  0  1  0  0  0  0  0  0  0  0  0
   -3.6280   -0.1680   -0.4230 C   0  0  0  0  0  0  0  0  0  0  0  0
   -3.8640    1.1450    0.0050 O   0  0  0  0  0  0  0  0  0  0  0  0
   -2.7420    0.7350   -2.4280 O   0  0  0  0  0  0  0  0  0  0  0  0
   -2.7370    0.0560   -3.6370 C   0  0  0  0  0  0  0  0  0  0  0  0
   -3.6660   -0.9980   -3.6510 O   0  0  0  0  0  0  0  0  0  0  0  0
  1  2  2  0
  2  3  1  0
  2 15  1  0
  3  4  1  0
  4  5  1  1
  4  6  1  0
  4 10  1  0
  6  7  1  0
  7  8  1  0
  8  9  1  0
  9 10  1  0
 10 11  1  1
 11 12  1  0
 12 13  1  0
 13 14  1  0
 15 16  1  1
 15 18  1  0
 16 17  1  0
 18 19  1  0
 19 20  1  0
M  END
