
     RDKit          3D

 19 19  0  0  0  0  0  0  0  0999 V2000
    2.7440    2.6150    1.5700 N   0  0  0  0  0  0  0  0  0  0  0  0
    3.0990    1.5010    0.7590 C   0  0  0  0  0  0  0  0  0  0  0  0
    4.3060    1.2040    0.7620 O   0  0  0  0  0  0  0  0  0  0  0  0
    2.1260    0.7870    0.0020 C   0  0  0  0  0  0  0  0  0  0  0  0
    2.2800   -0.2310   -0.7740 C   0  0  0  0  0  0  0  0  0  0  0  0
    3.5830   -0.8850   -1.0400 C   0  0  0  0  0  0  0  0  0  0  0  0
    3.5590   -2.2360   -0.6450 O   0  0  0  0  0  0  0  0  0  0  0  0
    1.1120   -0.8430   -1.5090 C   0  0  2  0  0  0  0  0  0  0  0  0
    1.2910   -0.5110   -2.8750 O   0  0  0  0  0  0  0  0  0  0  0  0
   -0.2090   -0.2940   -1.1240 C   0  0  1  0  0  0  0  0  0  0  0  0
   -1.1380   -0.8890   -2.0430 O   0  0  0  0  0  0  0  0  0  0  0  0
   -0.6850   -0.7810    0.2280 C   0  0  0  0  0  0  0  0  0  0  0  0
   -2.0150   -0.1720    0.5370 C   0  0  2  0  0  0  0  0  0  0  0  0
   -1.9890    1.3320    0.5860 C   0  0  0  0  0  0  0  0  0  0  0  0
   -3.2520    1.7580    1.0150 O   0  0  0  0  0  0  0  0  0  0  0  0
   -2.5170   -0.6750    1.8830 C   0  0  0  0  0  0  0  0  0  0  0  0
   -3.5910   -1.4900    1.5800 O   0  0  0  0  0  0  0  0  0  0  0  0
   -4.1020   -0.9050    0.4120 C   0  0  0  0  0  0  0  0  0  0  0  0
   -2.9860   -0.6160   -0.3470 O   0  0  0  0  0  0  0  0  0  0  0  0
  1  2  1  0
  2  3  2  0
  2  4  1  0
  4  5  2  3
  5  6  1  0
  5  8  1  0
  6  7  1  0
  8  9  1  6
  8 10  1  0
 10 11  1  6
 10 12  1  0
 13 12  1  6
 13 14  1  0
 13 16  1  0
 13 19  1  0
 14 15  1  0
 16 17  1  0
 17 18  1  0
 18 19  1  0
M  END
