
     RDKit          3D

 19 19  0  0  0  0  0  0  0  0999 V2000
    0.0140    2.7390    1.7830 N   0  0  0  0  0  0  0  0  0  0  0  0
   -0.1920    1.9350    0.6160 C   0  0  0  0  0  0  0  0  0  0  0  0
   -0.5690    2.5430   -0.4130 O   0  0  0  0  0  0  0  0  0  0  0  0
    0.0310    0.4660    0.6230 C   0  0  2  0  0  0  0  0  0  0  0  0
    1.4870    0.1450    0.8200 C   0  0  0  0  0  0  0  0  0  0  0  0
    2.4170    0.7340   -0.2050 C   0  0  2  0  0  0  0  0  0  0  0  0
    2.1690    0.3350   -1.4930 O   0  0  0  0  0  0  0  0  0  0  0  0
    3.8040    0.1730    0.1680 C   0  0  0  0  0  0  0  0  0  0  0  0
    3.7610   -1.2210    0.0670 O   0  0  0  0  0  0  0  0  0  0  0  0
   -0.7190   -0.2970   -0.3880 C   0  0  2  0  0  0  0  0  0  0  0  0
   -0.5320   -1.7870   -0.3890 C   0  0  0  0  0  0  0  0  0  0  0  0
    0.7400   -2.1830   -0.7150 O   0  0  0  0  0  0  0  0  0  0  0  0
   -0.3920    0.1340   -1.7280 O   0  0  0  0  0  0  0  0  0  0  0  0
   -1.4130   -0.3350   -2.5340 C   0  0  0  0  0  0  0  0  0  0  0  0
   -1.3020   -0.6130   -3.7480 O   0  0  0  0  0  0  0  0  0  0  0  0
   -2.6600   -0.4600   -1.7460 C   0  0  0  0  0  0  0  0  0  0  0  0
   -2.2140    0.0390   -0.3850 C   0  0  1  0  0  0  0  0  0  0  0  0
   -2.9880   -0.5840    0.7190 C   0  0  0  0  0  0  0  0  0  0  0  0
   -2.6020   -0.2460    1.9990 O   0  0  0  0  0  0  0  0  0  0  0  0
  1  2  1  0
  2  3  2  0
  2  4  1  0
  4  5  1  6
  4 10  1  0
  5  6  1  0
  6  7  1  6
  6  8  1  0
  8  9  1  0
 10 11  1  6
 10 13  1  0
 10 17  1  0
 11 12  1  0
 13 14  1  0
 14 15  2  0
 14 16  1  0
 16 17  1  0
 17 18  1  1
 18 19  1  0
M  END
