
     RDKit          3D

 19 19  0  0  0  0  0  0  0  0999 V2000
   -0.1640   -1.8230   -1.8540 N   0  0  0  0  0  0  0  0  0  0  0  0
    0.5650   -0.6070   -1.7190 C   0  0  0  0  0  0  0  0  0  0  0  0
    1.1260   -0.2100   -2.8000 O   0  0  0  0  0  0  0  0  0  0  0  0
    0.6660    0.1260   -0.4600 C   0  0  2  0  0  0  0  0  0  0  0  0
    1.2610   -0.6630    0.6740 C   0  0  0  0  0  0  0  0  0  0  0  0
    2.6450   -1.1400    0.4100 C   0  0  2  0  0  0  0  0  0  0  0  0
    3.0780   -1.8520    1.5300 O   0  0  0  0  0  0  0  0  0  0  0  0
    3.6300   -0.0130    0.2000 C   0  0  0  0  0  0  0  0  0  0  0  0
    3.6760    0.8210    1.3020 O   0  0  0  0  0  0  0  0  0  0  0  0
   -0.6130    0.8010   -0.0130 C   0  0  2  0  0  0  0  0  0  0  0  0
   -1.0620    1.8040   -1.0570 C   0  0  0  0  0  0  0  0  0  0  0  0
   -1.4290    1.2380   -2.2540 O   0  0  0  0  0  0  0  0  0  0  0  0
   -0.2770    1.5920    1.1430 O   0  0  0  0  0  0  0  0  0  0  0  0
   -0.8620    1.0080    2.2650 C   0  0  0  0  0  0  0  0  0  0  0  0
   -0.4630    0.9380    3.4540 O   0  0  0  0  0  0  0  0  0  0  0  0
   -2.1330    0.4460    1.7480 C   0  0  0  0  0  0  0  0  0  0  0  0
   -1.6900   -0.1150    0.4150 C   0  0  1  0  0  0  0  0  0  0  0  0
   -2.8890   -0.1670   -0.4800 C   0  0  0  0  0  0  0  0  0  0  0  0
   -3.8130   -1.0830    0.0750 O   0  0  0  0  0  0  0  0  0  0  0  0
  1  2  1  0
  2  3  2  0
  2  4  1  0
  4  5  1  1
  4 10  1  0
  5  6  1  0
  6  7  1  1
  6  8  1  0
  8  9  1  0
 10 11  1  6
 10 13  1  0
 10 17  1  0
 11 12  1  0
 13 14  1  0
 14 15  2  0
 14 16  1  0
 16 17  1  0
 17 18  1  6
 18 19  1  0
M  END
