
     RDKit          3D

 20 20  0  0  0  0  0  0  0  0999 V2000
   -0.6380   -1.3800    1.2060 O   0  0  0  0  0  0  0  0  0  0  0  0
   -0.9770   -0.3210    0.6310 C   0  0  0  0  0  0  0  0  0  0  0  0
   -2.0170   -0.3650   -0.3190 N   0  0  0  0  0  0  0  0  0  0  0  0
   -2.7860   -1.5010   -0.7320 C   0  0  0  0  0  0  0  0  0  0  0  0
   -3.5920   -2.0470    0.4050 C   0  0  0  0  0  0  0  0  0  0  0  0
   -2.8250   -2.4670    1.4640 O   0  0  0  0  0  0  0  0  0  0  0  0
   -0.2660    0.9460    0.9760 C   0  0  1  0  0  0  0  0  0  0  0  0
   -1.2830    1.9120    1.5140 C   0  0  0  0  0  0  0  0  0  0  0  0
   -1.8680    1.3190    2.6320 O   0  0  0  0  0  0  0  0  0  0  0  0
    0.6830    0.6840    1.9180 O   0  0  0  0  0  0  0  0  0  0  0  0
    1.6310    1.6330    2.1310 C   0  0  0  0  0  0  0  0  0  0  0  0
    1.6870    2.7760    1.2110 C   0  0  0  0  0  0  0  0  0  0  0  0
    0.9530    2.7180    0.0730 O   0  0  0  0  0  0  0  0  0  0  0  0
    0.4470    1.4770   -0.2510 C   0  0  1  0  0  0  0  0  0  0  0  0
    1.3970    0.5560   -0.6090 O   0  0  0  0  0  0  0  0  0  0  0  0
    1.2340    0.0540   -1.8920 C   0  0  0  0  0  0  0  0  0  0  0  0
    2.3480   -0.9580   -2.1740 C   0  0  2  0  0  0  0  0  0  0  0  0
    2.2340   -1.4900   -3.4410 O   0  0  0  0  0  0  0  0  0  0  0  0
    2.3920   -2.0230   -1.1050 C   0  0  0  0  0  0  0  0  0  0  0  0
    2.5070   -1.4290    0.1470 O   0  0  0  0  0  0  0  0  0  0  0  0
  1  2  2  0
  2  3  1  0
  2  7  1  0
  3  4  1  0
  4  5  1  0
  5  6  1  0
  7  8  1  1
  7 10  1  0
  7 14  1  0
  8  9  1  0
 10 11  1  0
 11 12  1  0
 12 13  1  0
 13 14  1  0
 14 15  1  1
 15 16  1  0
 16 17  1  0
 17 18  1  6
 17 19  1  0
 19 20  1  0
M  END
