
     RDKit          3D

 20 20  0  0  0  0  0  0  0  0999 V2000
   -0.3530   -1.7690   -0.7470 C   0  0  0  0  0  0  0  0  0  0  0  0
   -1.0010   -0.7790    0.1710 C   0  0  2  0  0  0  0  0  0  0  0  0
   -1.2110   -1.3410    1.5510 C   0  0  0  0  0  0  0  0  0  0  0  0
   -2.0430   -2.4750    1.4490 O   0  0  0  0  0  0  0  0  0  0  0  0
   -2.3040   -0.1920   -0.3440 C   0  0  1  0  0  0  0  0  0  0  0  0
   -3.3280   -0.1240    0.5810 O   0  0  0  0  0  0  0  0  0  0  0  0
   -1.6190    1.1120   -0.6390 C   0  0  1  0  0  0  0  0  0  0  0  0
   -2.1790    2.3150    0.0540 C   0  0  0  0  0  0  0  0  0  0  0  0
   -3.6030    2.5630   -0.2870 C   0  0  0  0  0  0  0  0  0  0  0  0
   -4.2680    1.8450   -1.0720 O   0  0  0  0  0  0  0  0  0  0  0  0
   -4.2170    3.6580    0.3060 O   0  0  0  0  0  0  0  0  0  0  0  0
   -0.4090    0.5930    0.1120 C   0  0  1  0  0  0  0  0  0  0  0  0
   -0.2000    1.1730    1.3500 O   0  0  0  0  0  0  0  0  0  0  0  0
    0.7790    0.7190   -0.7140 N   0  0  0  0  0  0  0  0  0  0  0  0
    2.0640    0.2990   -0.2420 C   0  0  0  0  0  0  0  0  0  0  0  0
    2.0840   -0.1760    0.9180 O   0  0  0  0  0  0  0  0  0  0  0  0
    3.2080    0.4070   -1.0050 O   0  0  0  0  0  0  0  0  0  0  0  0
    4.4660   -0.0150   -0.5180 C   0  0  0  0  0  0  0  0  0  0  0  0
    4.4890   -1.4880   -0.1750 C   0  0  0  0  0  0  0  0  0  0  0  0
    5.7910   -1.7680    0.2920 O   0  0  0  0  0  0  0  0  0  0  0  0
  2  1  1  6
  2  3  1  0
  2  5  1  0
  2 12  1  0
  3  4  1  0
  5  6  1  1
  5  7  1  0
  7  8  1  1
  7 12  1  0
  8  9  1  0
  9 10  2  0
  9 11  1  0
 12 13  1  1
 12 14  1  0
 14 15  1  0
 15 16  2  0
 15 17  1  0
 17 18  1  0
 18 19  1  0
 19 20  1  0
M  END
