
     RDKit          3D

 20 20  0  0  0  0  0  0  0  0999 V2000
    4.1180    2.6170    0.8090 O   0  0  0  0  0  0  0  0  0  0  0  0
    4.1720    2.1070   -0.4840 C   0  0  0  0  0  0  0  0  0  0  0  0
    3.4830    0.7920   -0.6210 C   0  0  0  0  0  0  0  0  0  0  0  0
    2.1320    0.8770   -0.2890 O   0  0  0  0  0  0  0  0  0  0  0  0
    1.5490   -0.3870   -0.4390 C   0  0  2  0  0  0  0  0  0  0  0  0
    0.4370   -0.3090   -1.3130 N   0  0  0  0  0  0  0  0  0  0  0  0
   -0.0960    0.9980   -1.5620 C   0  0  0  0  0  0  0  0  0  0  0  0
   -1.4770    0.9230   -1.6680 O   0  0  0  0  0  0  0  0  0  0  0  0
   -2.1800    1.7440   -0.8690 C   0  0  1  0  0  0  0  0  0  0  0  0
   -3.3280    2.1690   -1.5610 O   0  0  0  0  0  0  0  0  0  0  0  0
   -2.6400    1.1860    0.4480 C   0  0  2  0  0  0  0  0  0  0  0  0
   -1.6820    1.3080    1.4220 O   0  0  0  0  0  0  0  0  0  0  0  0
   -3.2910   -0.1240    0.3520 C   0  0  0  0  0  0  0  0  0  0  0  0
   -3.0660   -1.2040    1.0760 C   0  0  0  0  0  0  0  0  0  0  0  0
   -2.1730   -1.3750    2.0940 O   0  0  0  0  0  0  0  0  0  0  0  0
   -0.7940   -1.4360    2.1340 C   0  0  0  0  0  0  0  0  0  0  0  0
   -0.1150   -1.4610    0.7810 C   0  0  2  0  0  0  0  0  0  0  0  0
    0.2450   -2.9320    0.5030 C   0  0  0  0  0  0  0  0  0  0  0  0
   -0.8730   -3.7290    0.4520 O   0  0  0  0  0  0  0  0  0  0  0  0
    1.1060   -0.7960    0.8020 O   0  0  0  0  0  0  0  0  0  0  0  0
  1  2  1  0
  2  3  1  0
  3  4  1  0
  5  4  1  1
  5  6  1  0
  5 20  1  0
  6  7  1  0
  7  8  1  0
  8  9  1  0
  9 10  1  6
  9 11  1  0
 11 12  1  1
 11 13  1  0
 13 14  2  0
 14 15  1  0
 15 16  1  0
 16 17  1  0
 17 18  1  1
 17 20  1  0
 18 19  1  0
M  END
