
     RDKit          3D

 20 20  0  0  0  0  0  0  0  0999 V2000
   -4.3620   -0.7390    1.1800 C   0  0  0  0  0  0  0  0  0  0  0  0
   -2.8780   -0.9860    0.8160 C   0  0  1  0  0  0  0  0  0  0  0  0
   -2.2850   -1.4910    1.9860 O   0  0  0  0  0  0  0  0  0  0  0  0
   -2.9140   -2.0920   -0.1990 C   0  0  0  0  0  0  0  0  0  0  0  0
   -1.6990   -2.6510   -0.4970 O   0  0  0  0  0  0  0  0  0  0  0  0
   -2.2600    0.2590    0.3100 C   0  0  0  0  0  0  0  0  0  0  0  0
   -0.8800    0.1880   -0.0790 N   0  0  0  0  0  0  0  0  0  0  0  0
   -0.5620    0.0130   -1.4690 C   0  0  0  0  0  0  0  0  0  0  0  0
   -0.5310    1.3590   -2.2210 C   0  0  0  0  0  0  0  0  0  0  0  0
   -1.7980    1.9550   -2.1220 O   0  0  0  0  0  0  0  0  0  0  0  0
    0.1310    0.3530    0.8810 C   0  0  0  0  0  0  0  0  0  0  0  0
   -0.2600    0.6060    2.0870 O   0  0  0  0  0  0  0  0  0  0  0  0
    1.5750    0.2730    0.7000 C   0  0  2  0  0  0  0  0  0  0  0  0
    2.2060    0.4490    1.9310 O   0  0  0  0  0  0  0  0  0  0  0  0
    3.2880    1.2940    1.7400 C   0  0  0  0  0  0  0  0  0  0  0  0
    3.4810    1.2080    0.2410 C   0  0  1  0  0  0  0  0  0  0  0  0
    4.1520    2.2860   -0.2770 O   0  0  0  0  0  0  0  0  0  0  0  0
    4.2330   -0.0720   -0.0410 C   0  0  0  0  0  0  0  0  0  0  0  0
    4.3940   -0.2930   -1.4050 O   0  0  0  0  0  0  0  0  0  0  0  0
    2.1520    1.1330   -0.1840 O   0  0  0  0  0  0  0  0  0  0  0  0
  2  1  1  1
  2  3  1  0
  2  4  1  0
  2  6  1  0
  4  5  1  0
  6  7  1  0
  7  8  1  0
  7 11  1  0
  8  9  1  0
  9 10  1  0
 11 12  2  0
 13 11  1  1
 13 14  1  0
 13 20  1  0
 14 15  1  0
 15 16  1  0
 16 17  1  6
 16 18  1  0
 16 20  1  0
 18 19  1  0
M  END
