
     RDKit          3D

 20 20  0  0  0  0  0  0  0  0999 V2000
   -3.6610    1.9470   -0.2530 O   0  0  0  0  0  0  0  0  0  0  0  0
   -3.8270    0.8350   -0.8120 C   0  0  0  0  0  0  0  0  0  0  0  0
   -4.8420    0.7190   -1.7380 O   0  0  0  0  0  0  0  0  0  0  0  0
   -2.9620   -0.3320   -0.4960 C   0  0  2  0  0  0  0  0  0  0  0  0
   -3.7570   -1.3950    0.2470 C   0  0  0  0  0  0  0  0  0  0  0  0
   -3.9660   -0.7000    1.5930 C   0  0  0  0  0  0  0  0  0  0  0  0
   -2.6280   -0.0490    1.7530 C   0  0  0  0  0  0  0  0  0  0  0  0
   -2.1570    0.3330    2.8380 O   0  0  0  0  0  0  0  0  0  0  0  0
   -1.9940    0.0590    0.4920 N   0  0  0  0  0  0  0  0  0  0  0  0
   -0.6320    0.4760    0.1570 C   0  0  0  0  0  0  0  0  0  0  0  0
    0.3120   -0.6830    0.1330 C   0  0  1  0  0  0  0  0  0  0  0  0
   -0.1950   -1.6190   -0.8330 O   0  0  0  0  0  0  0  0  0  0  0  0
    1.6600   -0.2290   -0.3620 C   0  0  1  0  0  0  0  0  0  0  0  0
    1.6020    0.4180   -1.5980 O   0  0  0  0  0  0  0  0  0  0  0  0
    2.3710    0.5890    0.6460 C   0  0  2  0  0  0  0  0  0  0  0  0
    1.7660    1.8250    0.7840 O   0  0  0  0  0  0  0  0  0  0  0  0
    3.8300    0.8150    0.3150 C   0  0  2  0  0  0  0  0  0  0  0  0
    3.8960    1.5300   -0.8670 O   0  0  0  0  0  0  0  0  0  0  0  0
    4.5990   -0.4680    0.1950 C   0  0  0  0  0  0  0  0  0  0  0  0
    4.5410   -1.1990    1.3770 O   0  0  0  0  0  0  0  0  0  0  0  0
  1  2  2  0
  2  3  1  0
  4  2  1  1
  4  5  1  0
  4  9  1  0
  5  6  1  0
  6  7  1  0
  7  8  2  0
  7  9  1  0
  9 10  1  0
 10 11  1  0
 11 12  1  6
 11 13  1  0
 13 14  1  6
 13 15  1  0
 15 16  1  6
 15 17  1  0
 17 18  1  6
 17 19  1  0
 19 20  1  0
M  END
