
     RDKit          3D

 20 20  0  0  0  0  0  0  0  0999 V2000
   -5.8310    0.0520   -0.1180 C   0  0  0  0  0  0  0  0  0  0  0  0
   -4.5350   -0.7240   -0.1840 C   0  0  2  0  0  0  0  0  0  0  0  0
   -4.1930   -1.0910    1.0920 O   0  0  0  0  0  0  0  0  0  0  0  0
   -2.8150   -0.9380    1.2260 C   0  0  0  0  0  0  0  0  0  0  0  0
   -2.4700    0.0710    0.1900 C   0  0  1  0  0  0  0  0  0  0  0  0
   -2.4510    1.4890    0.7160 C   0  0  0  0  0  0  0  0  0  0  0  0
   -1.1340   -0.2750   -0.4150 C   0  0  1  0  0  0  0  0  0  0  0  0
   -0.8300    0.5870   -1.4700 O   0  0  0  0  0  0  0  0  0  0  0  0
   -0.0200   -0.2300    0.6170 C   0  0  1  0  0  0  0  0  0  0  0  0
   -0.3340   -1.0680    1.7030 O   0  0  0  0  0  0  0  0  0  0  0  0
    1.2450   -0.6300    0.0340 N   0  0  0  0  0  0  0  0  0  0  0  0
    2.3570    0.2150    0.0780 C   0  0  0  0  0  0  0  0  0  0  0  0
    2.2130    1.3420    0.6470 O   0  0  0  0  0  0  0  0  0  0  0  0
    3.6850   -0.0850   -0.4770 C   0  0  1  0  0  0  0  0  0  0  0  0
    3.6420   -1.3530   -1.0520 O   0  0  0  0  0  0  0  0  0  0  0  0
    4.1090    0.8850   -1.5480 C   0  0  0  0  0  0  0  0  0  0  0  0
    4.1940    2.1880   -1.1140 O   0  0  0  0  0  0  0  0  0  0  0  0
    4.6760   -0.1180    0.6500 C   0  0  0  0  0  0  0  0  0  0  0  0
    5.9340   -0.4550    0.2080 O   0  0  0  0  0  0  0  0  0  0  0  0
   -3.5010   -0.0140   -0.7270 O   0  0  0  0  0  0  0  0  0  0  0  0
  2  1  1  1
  2  3  1  0
  2 20  1  0
  3  4  1  0
  4  5  1  0
  5  6  1  1
  5  7  1  0
  5 20  1  0
  7  8  1  6
  7  9  1  0
  9 10  1  1
  9 11  1  0
 11 12  1  0
 12 13  2  0
 12 14  1  0
 14 15  1  6
 14 16  1  0
 14 18  1  0
 16 17  1  0
 18 19  1  0
M  END
