
     RDKit          3D

 19 19  0  0  0  0  0  0  0  0999 V2000
    3.6600    1.7430   -2.6960 N   0  0  0  0  0  0  0  0  0  0  0  0
    3.7560    0.9530   -1.4680 C   0  0  0  0  0  0  0  0  0  0  0  0
    4.8810    0.6790   -1.0500 O   0  0  0  0  0  0  0  0  0  0  0  0
    2.5510    0.5300   -0.7990 C   0  0  0  0  0  0  0  0  0  0  0  0
    2.4490   -0.1510    0.2680 C   0  0  0  0  0  0  0  0  0  0  0  0
    3.5800   -0.6680    1.0750 C   0  0  0  0  0  0  0  0  0  0  0  0
    3.4790   -2.0690    1.1150 O   0  0  0  0  0  0  0  0  0  0  0  0
    1.1130   -0.5040    0.8340 C   0  0  2  0  0  0  0  0  0  0  0  0
    1.0450   -1.8600    1.0290 O   0  0  0  0  0  0  0  0  0  0  0  0
   -0.0630   -0.0380    0.0170 C   0  0  1  0  0  0  0  0  0  0  0  0
   -0.0910   -0.6800   -1.2310 O   0  0  0  0  0  0  0  0  0  0  0  0
   -1.2720   -0.3550    0.8420 C   0  0  0  0  0  0  0  0  0  0  0  0
   -2.5930    0.0050    0.3080 C   0  0  2  0  0  0  0  0  0  0  0  0
   -2.8890   -0.6710   -0.9960 C   0  0  0  0  0  0  0  0  0  0  0  0
   -4.1940   -0.3760   -1.4200 O   0  0  0  0  0  0  0  0  0  0  0  0
   -2.8880    1.4610    0.2030 C   0  0  0  0  0  0  0  0  0  0  0  0
   -3.6100    1.8200    1.3410 O   0  0  0  0  0  0  0  0  0  0  0  0
   -3.5840    0.6820    2.1380 C   0  0  0  0  0  0  0  0  0  0  0  0
   -3.5380   -0.4120    1.2910 O   0  0  0  0  0  0  0  0  0  0  0  0
  1  2  1  0
  2  3  2  0
  2  4  1  0
  4  5  2  3
  5  6  1  0
  5  8  1  0
  6  7  1  0
  8  9  1  6
  8 10  1  0
 10 11  1  6
 10 12  1  0
 13 12  1  1
 13 14  1  0
 13 16  1  0
 13 19  1  0
 14 15  1  0
 16 17  1  0
 17 18  1  0
 18 19  1  0
M  END
