
     RDKit          3D

 42 43  0  0  0  0  0  0  0  0999 V2000
   -3.1130   -5.0510    0.6250 C   0  0  0  0  0  0  0  0  0  0  0  0
   -2.3680   -4.0550    1.5460 C   0  0  1  0  0  0  0  0  0  0  0  0
   -1.6150   -3.2240    0.7860 O   0  0  0  0  0  0  0  0  0  0  0  0
   -0.6660   -2.4340    0.3360 C   0  0  0  0  0  0  0  0  0  0  0  0
    0.5690   -2.7980    0.5210 O   0  0  0  0  0  0  0  0  0  0  0  0
   -0.6220   -1.1020   -0.4030 C   0  0  2  0  0  0  0  0  0  0  0  0
    0.4230   -0.2360    0.0560 N   0  0  0  0  0  0  0  0  0  0  0  0
    1.7300   -0.1440   -0.4930 C   0  0  0  0  0  0  0  0  0  0  0  0
    1.9640   -0.9090   -1.4720 O   0  0  0  0  0  0  0  0  0  0  0  0
    2.7420    0.7880    0.0480 C   0  0  2  0  0  0  0  0  0  0  0  0
    2.3710    2.2260   -0.1790 C   0  0  0  0  0  0  0  0  0  0  0  0
    4.1220    0.5500   -0.5510 C   0  0  1  0  0  0  0  0  0  0  0  0
    4.0400    0.7240   -2.0440 C   0  0  0  0  0  0  0  0  0  0  0  0
    4.9270    1.5700   -0.0650 O   0  0  0  0  0  0  0  0  0  0  0  0
    5.9550    1.0500    0.6600 C   0  0  2  0  0  0  0  0  0  0  0  0
    5.7150    1.3100    2.1280 C   0  0  0  0  0  0  0  0  0  0  0  0
    7.2260    1.7850    0.2220 C   0  0  0  0  0  0  0  0  0  0  0  0
    8.2730    1.2600    0.9630 O   0  0  0  0  0  0  0  0  0  0  0  0
    6.0640   -0.4120    0.3770 C   0  0  0  0  0  0  0  0  0  0  0  0
    4.6930   -0.7570   -0.1420 C   0  0  1  0  0  0  0  0  0  0  0  0
    3.9680   -1.3800    0.8740 O   0  0  0  0  0  0  0  0  0  0  0  0
   -1.8420   -0.4910   -0.8970 C   0  0  1  0  0  0  0  0  0  0  0  0
   -2.7810   -1.4130   -0.0150 C   0  0  0  0  0  0  0  0  0  0  0  0
   -2.5100   -0.9090    1.2720 N   0  0  0  0  0  0  0  0  0  0  0  0
   -3.4120   -2.2140   -0.5980 O   0  0  0  0  0  0  0  0  0  0  0  0
   -2.5720    0.7290   -0.4450 C   0  0  1  0  0  0  0  0  0  0  0  0
   -2.5280    1.7420   -1.5520 C   0  0  0  0  0  0  0  0  0  0  0  0
   -1.4430    2.0860   -2.0650 O   0  0  0  0  0  0  0  0  0  0  0  0
   -3.7030    2.2840   -1.9920 O   0  0  0  0  0  0  0  0  0  0  0  0
   -3.8160    3.2360   -2.9920 C   0  0  0  0  0  0  0  0  0  0  0  0
   -3.1980    4.5450   -2.6550 C   0  0  0  0  0  0  0  0  0  0  0  0
   -1.8640    4.5360   -2.3940 O   0  0  0  0  0  0  0  0  0  0  0  0
   -3.8940    0.4990   -0.0090 O   0  0  0  0  0  0  0  0  0  0  0  0
   -5.0000   -0.2160   -0.0210 C   0  0  0  0  0  0  0  0  0  0  0  0
   -5.6160   -0.2460   -1.2070 O   0  0  0  0  0  0  0  0  0  0  0  0
   -5.7870   -1.0170    0.9270 C   0  0  0  0  0  0  0  0  0  0  0  0
   -7.1720   -0.4490    1.0660 N   0  0  0  0  0  0  0  0  0  0  0  0
   -5.6100   -2.0930    1.6810 C   0  0  0  0  0  0  0  0  0  0  0  0
   -6.9010   -2.3520    2.4180 O   0  0  0  0  0  0  0  0  0  0  0  0
   -4.6190   -2.9560    1.9300 O   0  0  0  0  0  0  0  0  0  0  0  0
   -3.4710   -3.4120    2.3960 C   0  0  0  0  0  0  0  0  0  0  0  0
   -3.0000   -3.4350    3.6020 O   0  0  0  0  0  0  0  0  0  0  0  0
  2  1  1  6
  2  3  1  0
  2 41  1  0
  3  4  1  0
  4  5  2  0
  4  6  1  0
  6  7  1  1
  6 22  1  0
  7  8  1  0
  8  9  2  0
  8 10  1  0
 10 11  1  6
 10 12  1  0
 12 13  1  6
 12 14  1  0
 12 20  1  0
 14 15  1  0
 15 16  1  1
 15 17  1  0
 15 19  1  0
 17 18  1  0
 19 20  1  0
 20 21  1  1
 22 23  1  1
 22 26  1  0
 23 24  1  0
 23 25  2  0
 26 27  1  6
 26 33  1  0
 27 28  2  0
 27 29  1  0
 29 30  1  0
 30 31  1  0
 31 32  1  0
 33 34  1  0
 34 35  2  0
 34 36  1  0
 36 37  1  0
 36 38  2  0
 38 39  1  0
 38 40  1  0
 40 41  1  0
 41 42  2  0
M  END
