
     RDKit          3D

 42 43  0  0  0  0  0  0  0  0999 V2000
   -0.6220   -0.2980    3.4510 C   0  0  0  0  0  0  0  0  0  0  0  0
   -0.6610    0.8290    2.4320 C   0  0  1  0  0  0  0  0  0  0  0  0
   -1.8340    1.5720    2.5490 O   0  0  0  0  0  0  0  0  0  0  0  0
   -2.5510    1.6180    1.3300 C   0  0  0  0  0  0  0  0  0  0  0  0
   -3.5760    0.5820    1.1800 C   0  0  1  0  0  0  0  0  0  0  0  0
   -3.9260    0.0650    2.5850 C   0  0  0  0  0  0  0  0  0  0  0  0
   -4.8790    1.2130    0.6690 C   0  0  0  0  0  0  0  0  0  0  0  0
   -3.2690   -0.6210    0.3510 C   0  0  2  0  0  0  0  0  0  0  0  0
   -2.6230   -1.6080    1.0970 O   0  0  0  0  0  0  0  0  0  0  0  0
   -2.5960   -0.3940   -0.9460 C   0  0  2  0  0  0  0  0  0  0  0  0
   -3.2700   -1.0990   -2.1080 C   0  0  2  0  0  0  0  0  0  0  0  0
   -4.6050   -0.6540   -2.2440 O   0  0  0  0  0  0  0  0  0  0  0  0
   -5.0530    0.0500   -3.3500 C   0  0  0  0  0  0  0  0  0  0  0  0
   -4.2520    0.3020   -4.2610 O   0  0  0  0  0  0  0  0  0  0  0  0
   -6.3690    0.4890   -3.4830 O   0  0  0  0  0  0  0  0  0  0  0  0
   -3.1570   -2.5950   -2.0530 C   0  0  2  0  0  0  0  0  0  0  0  0
   -3.8920   -3.1300   -0.9380 N   0  0  0  0  0  0  0  0  0  0  0  0
   -1.8580   -3.0420   -2.1180 O   0  0  0  0  0  0  0  0  0  0  0  0
   -1.2930   -0.9320   -0.9000 O   0  0  0  0  0  0  0  0  0  0  0  0
   -0.4140   -0.1090   -1.6440 C   0  0  0  0  0  0  0  0  0  0  0  0
    1.0040   -0.4520   -1.4540 C   0  0  1  0  0  0  0  0  0  0  0  0
    1.7160   -0.0780   -2.6100 O   0  0  0  0  0  0  0  0  0  0  0  0
    1.7100    0.0370   -0.2570 C   0  0  2  0  0  0  0  0  0  0  0  0
    1.6240   -0.9020    0.7830 O   0  0  0  0  0  0  0  0  0  0  0  0
    2.8240   -1.4760    1.1160 C   0  0  0  0  0  0  0  0  0  0  0  0
    3.4130   -2.1610    0.0520 O   0  0  0  0  0  0  0  0  0  0  0  0
    4.6140   -2.7320    0.3960 C   0  0  1  0  0  0  0  0  0  0  0  0
    4.6240   -4.2470    0.1970 C   0  0  0  0  0  0  0  0  0  0  0  0
    6.0900   -4.4960   -0.0590 C   0  0  0  0  0  0  0  0  0  0  0  0
    6.6360   -3.3640   -0.5850 O   0  0  0  0  0  0  0  0  0  0  0  0
    5.7670   -2.3170   -0.4560 C   0  0  0  0  0  0  0  0  0  0  0  0
    1.4140    1.4370    0.1910 C   0  0  2  0  0  0  0  0  0  0  0  0
    2.4860    2.4010   -0.3490 C   0  0  0  0  0  0  0  0  0  0  0  0
    2.1960    3.7890    0.0890 C   0  0  0  0  0  0  0  0  0  0  0  0
    1.1750    3.9940    0.7900 O   0  0  0  0  0  0  0  0  0  0  0  0
    3.0370    4.8630   -0.2640 N   0  0  0  0  0  0  0  0  0  0  0  0
    2.7530    6.1860    0.1590 C   0  0  0  0  0  0  0  0  0  0  0  0
    3.6500    7.2240   -0.2380 N   0  0  0  0  0  0  0  0  0  0  0  0
    1.7420    6.3930    0.8530 O   0  0  0  0  0  0  0  0  0  0  0  0
    1.5660    1.4740    1.5980 O   0  0  0  0  0  0  0  0  0  0  0  0
    0.5620    1.6510    2.5180 C   0  0  0  0  0  0  0  0  0  0  0  0
    0.6470    2.4950    3.4410 O   0  0  0  0  0  0  0  0  0  0  0  0
  2  1  1  1
  2  3  1  0
  2 41  1  0
  3  4  1  0
  4  5  1  0
  5  6  1  1
  5  7  1  0
  5  8  1  0
  8  9  1  1
  8 10  1  0
 10 11  1  0
 10 19  1  1
 11 12  1  1
 11 16  1  0
 12 13  1  0
 13 14  2  0
 13 15  1  0
 16 17  1  1
 16 18  1  0
 19 20  1  0
 20 21  1  0
 21 22  1  6
 21 23  1  0
 23 24  1  1
 23 32  1  0
 24 25  1  0
 25 26  1  0
 27 26  1  6
 27 28  1  0
 27 31  1  0
 28 29  1  0
 29 30  1  0
 30 31  1  0
 32 33  1  6
 32 40  1  0
 33 34  1  0
 34 35  2  0
 34 36  1  0
 36 37  1  0
 37 38  1  0
 37 39  2  0
 40 41  1  0
 41 42  2  0
M  END
