
     RDKit          3D

 43 46  0  0  0  0  0  0  0  0999 V2000
   -1.9440    3.6220   -4.3330 C   0  0  0  0  0  0  0  0  0  0  0  0
   -2.0630    2.9020   -3.2820 C   0  0  0  0  0  0  0  0  0  0  0  0
   -2.1830    1.4750   -3.2650 C   0  0  0  0  0  0  0  0  0  0  0  0
   -2.4340    0.7430   -4.3620 C   0  0  0  0  0  0  0  0  0  0  0  0
   -2.6070    1.3260   -5.6840 C   0  0  0  0  0  0  0  0  0  0  0  0
   -1.9860    0.9890   -1.8530 C   0  0  0  0  0  0  0  0  0  0  0  0
   -2.1660   -0.2490   -1.4920 C   0  0  0  0  0  0  0  0  0  0  0  0
   -2.0830   -1.1030   -0.3440 C   0  0  0  0  0  0  0  0  0  0  0  0
   -3.0990   -1.4510    0.4320 C   0  0  0  0  0  0  0  0  0  0  0  0
   -2.9580   -2.3230    1.5940 C   0  0  0  0  0  0  0  0  0  0  0  0
   -4.0430   -2.5680    2.3080 C   0  0  0  0  0  0  0  0  0  0  0  0
   -3.9460   -3.4060    3.4450 N   0  0  0  0  0  0  0  0  0  0  0  0
   -4.6880   -2.7730    4.5230 C   0  0  0  0  0  0  0  0  0  0  0  0
   -0.7790   -1.7550    0.1000 C   0  0  0  0  0  0  0  0  0  0  0  0
    0.3130   -1.0040   -0.6540 C   0  0  0  0  0  0  0  0  0  0  0  0
    1.6220   -1.5070   -0.4690 N   0  0  0  0  0  0  0  0  0  0  0  0
    2.0970   -2.4390   -1.5240 C   0  0  0  0  0  0  0  0  0  0  0  0
    2.6710   -1.6180   -2.6330 C   0  0  0  0  0  0  0  0  0  0  0  0
    3.8170   -0.7250   -2.2180 C   0  0  1  0  0  0  0  0  0  0  0  0
    4.8910   -1.4300   -1.7170 O   0  0  0  0  0  0  0  0  0  0  0  0
    4.2690   -0.0360   -3.5070 C   0  0  0  0  0  0  0  0  0  0  0  0
    4.6720   -1.0840   -4.3620 O   0  0  0  0  0  0  0  0  0  0  0  0
    2.5130   -1.2040    0.5540 C   0  0  0  0  0  0  0  0  0  0  0  0
    3.3490   -2.1400    0.8530 O   0  0  0  0  0  0  0  0  0  0  0  0
    2.6650    0.0070    1.3570 C   0  0  2  0  0  0  0  0  0  0  0  0
    2.7660   -0.2920    2.7880 C   0  0  0  0  0  0  0  0  0  0  0  0
    3.3120    0.5930    3.6880 C   0  0  0  0  0  0  0  0  0  0  0  0
    3.4470    0.2970    5.0480 C   0  0  0  0  0  0  0  0  0  0  0  0
    3.0170   -0.9420    5.5390 C   0  0  0  0  0  0  0  0  0  0  0  0
    3.1350   -1.2740    6.8510 F   0  0  0  0  0  0  0  0  0  0  0  0
    2.4700   -1.8240    4.6300 C   0  0  0  0  0  0  0  0  0  0  0  0
    2.3430   -1.5200    3.3030 C   0  0  0  0  0  0  0  0  0  0  0  0
    2.0060    1.1880    0.9580 N   0  0  0  0  0  0  0  0  0  0  0  0
    1.2280    2.1320    1.6700 C   0  0  0  0  0  0  0  0  0  0  0  0
    1.7590    3.2770    1.9240 O   0  0  0  0  0  0  0  0  0  0  0  0
   -0.0880    1.9880    2.1530 N   0  0  0  0  0  0  0  0  0  0  0  0
   -1.2830    1.5950    1.3950 C   0  0  0  0  0  0  0  0  0  0  0  0
   -1.4850    2.4260    0.2060 C   0  0  0  0  0  0  0  0  0  0  0  0
   -1.2820    3.7920    0.6200 C   0  0  0  0  0  0  0  0  0  0  0  0
   -1.3350    4.8550   -0.1840 C   0  0  0  0  0  0  0  0  0  0  0  0
   -1.6020    4.5960   -1.5020 C   0  0  0  0  0  0  0  0  0  0  0  0
   -1.7990    3.3110   -1.9310 N   0  0  0  0  0  0  0  0  0  0  0  0
   -1.7490    2.2270   -1.1160 C   0  0  0  0  0  0  0  0  0  0  0  0
  1  2  2  0
  2  3  1  0
  2 42  1  0
  3  4  2  3
  3  6  1  0
  4  5  1  0
  6  7  2  0
  6 43  1  0
  7  8  1  0
  8  9  2  3
  8 14  1  0
  9 10  1  0
 10 11  2  3
 11 12  1  0
 12 13  1  0
 14 15  1  0
 15 16  1  0
 16 17  1  0
 16 23  1  0
 17 18  1  0
 18 19  1  0
 19 20  1  6
 19 21  1  0
 21 22  1  0
 23 24  2  0
 23 25  1  0
 25 26  1  1
 25 33  1  0
 26 27  2  0
 26 32  1  0
 27 28  1  0
 28 29  2  0
 29 30  1  0
 29 31  1  0
 31 32  2  0
 33 34  1  0
 34 35  2  0
 34 36  1  0
 36 37  1  0
 37 38  1  0
 38 39  2  0
 38 43  1  0
 39 40  1  0
 40 41  2  0
 41 42  1  0
 42 43  2  0
M  CHG  2  12   1  42   1
M  END
