
     RDKit          3D

 15 15  0  0  0  0  0  0  0  0999 V2000
   -4.5840    0.1600   -1.7430 C   0  0  0  0  0  0  0  0  0  0  0  0
   -3.2160    0.2580   -1.1200 C   0  0  0  0  0  0  0  0  0  0  0  0
   -3.0490    0.7430    0.0940 C   0  0  0  0  0  0  0  0  0  0  0  0
   -1.7310    0.8630    0.7540 C   0  0  1  0  0  0  0  0  0  0  0  0
   -1.8450    0.2530    2.0710 N   0  0  0  0  0  0  0  0  0  0  0  0
   -0.6440    0.1400   -0.0060 C   0  0  2  0  0  0  0  0  0  0  0  0
    0.6780    0.5920    0.5540 C   0  0  0  0  0  0  0  0  0  0  0  0
    1.8370   -0.0270   -0.0890 C   0  0  0  0  0  0  0  0  0  0  0  0
    2.2340    0.4070   -1.1960 O   0  0  0  0  0  0  0  0  0  0  0  0
    2.5170   -1.0800    0.4790 O   0  0  0  0  0  0  0  0  0  0  0  0
    3.6200   -1.7620    0.0030 C   0  0  0  0  0  0  0  0  0  0  0  0
    4.8770   -0.9890   -0.1810 C   0  0  0  0  0  0  0  0  0  0  0  0
    4.7720    0.0640   -1.0730 O   0  0  0  0  0  0  0  0  0  0  0  0
   -0.8140    0.4040   -1.4600 C   0  0  0  0  0  0  0  0  0  0  0  0
   -2.0860   -0.1620   -1.8120 O   0  0  0  0  0  0  0  0  0  0  0  0
  1  2  1  0
  2  3  2  0
  2 15  1  0
  3  4  1  0
  4  5  1  1
  4  6  1  0
  6  7  1  1
  6 14  1  0
  7  8  1  0
  8  9  2  0
  8 10  1  0
 10 11  1  0
 11 12  1  0
 12 13  1  0
 14 15  1  0
M  CHG  1   5   1
M  END
