
     RDKit          3D

 15 15  0  0  0  0  0  0  0  0999 V2000
    3.5690   -1.4280    0.4780 C   0  0  0  0  0  0  0  0  0  0  0  0
    2.2800   -0.5930    0.4970 C   0  0  1  0  0  0  0  0  0  0  0  0
    1.7460   -0.7340    1.7490 O   0  0  0  0  0  0  0  0  0  0  0  0
    2.7090    0.8550    0.2410 C   0  0  0  0  0  0  0  0  0  0  0  0
    3.6990    1.2490    1.2040 N   0  0  0  0  0  0  0  0  0  0  0  0
    1.4110   -1.0650   -0.6190 C   0  0  0  0  0  0  0  0  0  0  0  0
    0.1850   -0.4430   -0.7680 O   0  0  0  0  0  0  0  0  0  0  0  0
   -0.8460   -0.4280    0.1150 C   0  0  0  0  0  0  0  0  0  0  0  0
   -0.7290   -1.0360    1.2070 O   0  0  0  0  0  0  0  0  0  0  0  0
   -2.1370    0.2720   -0.1210 C   0  0  1  0  0  0  0  0  0  0  0  0
   -1.8330    1.7660   -0.2940 C   0  0  0  0  0  0  0  0  0  0  0  0
   -2.8260   -0.1770   -1.3700 C   0  0  0  0  0  0  0  0  0  0  0  0
   -4.2790   -0.1070   -0.9160 C   0  0  0  0  0  0  0  0  0  0  0  0
   -4.0960   -0.5870    0.5300 C   0  0  0  0  0  0  0  0  0  0  0  0
   -2.9760    0.1110    0.9400 O   0  0  0  0  0  0  0  0  0  0  0  0
  2  1  1  1
  2  3  1  0
  2  4  1  0
  2  6  1  0
  4  5  1  0
  6  7  1  0
  7  8  1  0
  8  9  2  0
  8 10  1  0
 10 11  1  6
 10 12  1  0
 10 15  1  0
 12 13  1  0
 13 14  1  0
 14 15  1  0
M  CHG  1   5   1
M  END
