
     RDKit          3D

 15 15  0  0  0  0  0  0  0  0999 V2000
    0.1260   -1.9930   -0.2690 C   0  0  0  0  0  0  0  0  0  0  0  0
    0.2220   -0.4860   -0.3600 C   0  0  1  0  0  0  0  0  0  0  0  0
    1.6390   -0.1550   -0.6630 C   0  0  0  0  0  0  0  0  0  0  0  0
    1.8800    0.4730   -1.7260 O   0  0  0  0  0  0  0  0  0  0  0  0
    2.6960   -0.4890    0.1390 O   0  0  0  0  0  0  0  0  0  0  0  0
    4.0480   -0.1800   -0.1400 C   0  0  0  0  0  0  0  0  0  0  0  0
    4.2800    1.2770   -0.2520 C   0  0  0  0  0  0  0  0  0  0  0  0
    3.4030    2.1110   -0.1180 O   0  0  0  0  0  0  0  0  0  0  0  0
   -0.6970   -0.0160   -1.4340 C   0  0  0  0  0  0  0  0  0  0  0  0
   -2.1280   -0.1210   -1.0320 C   0  0  0  0  0  0  0  0  0  0  0  0
   -2.3610    0.7020    0.2140 C   0  0  1  0  0  0  0  0  0  0  0  0
   -3.7560    0.7850    0.5680 N   0  0  0  0  0  0  0  0  0  0  0  0
   -1.5670    0.0260    1.3270 C   0  0  0  0  0  0  0  0  0  0  0  0
   -0.1120    0.1760    0.9600 C   0  0  1  0  0  0  0  0  0  0  0  0
    0.7320   -0.2790    1.9670 O   0  0  0  0  0  0  0  0  0  0  0  0
  2  1  1  1
  2  3  1  0
  2  9  1  0
  2 14  1  0
  3  4  2  0
  3  5  1  0
  5  6  1  0
  6  7  1  0
  7  8  2  0
  9 10  1  0
 10 11  1  0
 11 12  1  1
 11 13  1  0
 13 14  1  0
 14 15  1  1
M  CHG  1  12   1
M  END
