
     RDKit          3D

 35 38  0  0  0  0  0  0  0  0999 V2000
    5.5450    0.3680    2.8810 O   0  0  0  0  0  0  0  0  0  0  0  0
    4.3900    0.4220    1.9060 S   0  0  2  0  0  0  0  0  0  0  0  0
    3.7190    1.7670    2.0170 O   0  0  0  0  0  0  0  0  0  0  0  0
    3.2650   -0.8080    2.2990 N   0  0  0  0  0  0  0  0  0  0  0  0
    2.0520   -0.9630    1.5760 C   0  0  0  0  0  0  0  0  0  0  0  0
    1.6720   -2.2300    1.1980 C   0  0  0  0  0  0  0  0  0  0  0  0
    0.5080   -2.3790    0.5050 C   0  0  0  0  0  0  0  0  0  0  0  0
   -0.3390   -1.2790    0.1520 C   0  0  0  0  0  0  0  0  0  0  0  0
   -1.5010   -1.6450   -0.5420 N   0  0  0  0  0  0  0  0  0  0  0  0
   -2.6970   -2.1090    0.1060 C   0  0  0  0  0  0  0  0  0  0  0  0
   -3.7480   -2.4310   -0.8640 C   0  0  0  0  0  0  0  0  0  0  0  0
   -3.1250   -2.9680   -2.1270 C   0  0  0  0  0  0  0  0  0  0  0  0
   -1.7490   -1.7760   -2.2140 S   0  0  2  0  0  0  0  0  0  0  0  0
   -0.6480   -2.5080   -2.9210 O   0  0  0  0  0  0  0  0  0  0  0  0
   -2.2680   -0.6260   -2.9460 O   0  0  0  0  0  0  0  0  0  0  0  0
    0.0280   -0.0450    0.5170 C   0  0  0  0  0  0  0  0  0  0  0  0
   -0.7400    1.1770    0.1880 C   0  0  1  0  0  0  0  0  0  0  0  0
   -0.4260    1.7340   -1.1730 C   0  0  0  0  0  0  0  0  0  0  0  0
   -1.1150    2.9760   -1.5730 C   0  0  0  0  0  0  0  0  0  0  0  0
   -0.5180    3.3670   -3.2370 Cl  0  0  0  0  0  0  0  0  0  0  0  0
   -2.0900    1.2790    0.6960 C   0  0  0  0  0  0  0  0  0  0  0  0
   -3.1930    1.1980   -0.1020 C   0  0  0  0  0  0  0  0  0  0  0  0
   -4.4840    1.3050    0.4400 C   0  0  0  0  0  0  0  0  0  0  0  0
   -4.6600    1.4950    1.7950 C   0  0  0  0  0  0  0  0  0  0  0  0
   -6.2960    1.6360    2.5210 S   0  0  0  0  0  0  0  0  0  0  0  0
   -3.5330    1.5740    2.5800 C   0  0  0  0  0  0  0  0  0  0  0  0
   -2.2740    1.4700    2.0530 C   0  0  0  0  0  0  0  0  0  0  0  0
    1.2480    0.1000    1.2430 C   0  0  0  0  0  0  0  0  0  0  0  0
    5.0160    0.2590    0.2850 C   0  0  0  0  0  0  0  0  0  0  0  0
    4.3750    0.8650   -0.7020 C   0  0  0  0  0  0  0  0  0  0  0  0
    4.7890    0.8150   -2.1170 C   0  0  0  0  0  0  0  0  0  0  0  0
    5.9380    0.0610   -2.3490 O   0  0  0  0  0  0  0  0  0  0  0  0
    6.5820   -0.5570   -1.3100 C   0  0  0  0  0  0  0  0  0  0  0  0
    6.2000   -0.5020   -0.0520 C   0  0  0  0  0  0  0  0  0  0  0  0
    6.8710   -1.1320    0.9470 F   0  0  0  0  0  0  0  0  0  0  0  0
  1  2  2  0
  2  3  2  0
  2  4  1  1
  2 29  1  0
  4  5  1  0
  5  6  2  0
  5 28  1  0
  6  7  1  0
  7  8  2  0
  8  9  1  0
  8 16  1  0
  9 10  1  0
  9 13  1  0
 10 11  1  0
 11 12  1  0
 13 12  1  1
 13 14  2  0
 13 15  2  0
 16 17  1  0
 16 28  2  0
 17 18  1  6
 17 21  1  0
 18 19  1  0
 19 20  1  0
 21 22  2  0
 21 27  1  0
 22 23  1  0
 23 24  2  0
 24 25  1  0
 24 26  1  0
 26 27  2  0
 29 30  2  0
 29 34  1  0
 30 31  1  0
 31 32  1  0
 32 33  1  0
 33 34  2  0
 34 35  1  0
M  END
