
     RDKit          3D

 34 37  0  0  0  0  0  0  0  0999 V2000
   -5.8590    0.2670   -0.8210 C   0  0  0  0  0  0  0  0  0  0  0  0
   -4.9540    0.0280    0.3690 C   0  0  1  0  0  0  0  0  0  0  0  0
   -5.7990    0.1660    1.6170 C   0  0  0  0  0  0  0  0  0  0  0  0
   -6.3820    1.5790    1.6450 C   0  0  0  0  0  0  0  0  0  0  0  0
   -7.2260    1.7740    2.8550 C   0  0  0  0  0  0  0  0  0  0  0  0
   -7.7490    2.8650    2.9920 O   0  0  0  0  0  0  0  0  0  0  0  0
   -4.4940   -1.4170    0.2930 C   0  0  0  0  0  0  0  0  0  0  0  0
   -3.2430   -1.6530    1.0710 C   0  0  1  0  0  0  0  0  0  0  0  0
   -2.8620   -2.9740    0.8670 O   0  0  0  0  0  0  0  0  0  0  0  0
   -2.1010   -0.7660    0.5920 C   0  0  0  0  0  0  0  0  0  0  0  0
   -2.6370    0.2710   -0.3510 C   0  0  2  0  0  0  0  0  0  0  0  0
   -1.5730    1.1670   -0.8640 C   0  0  2  0  0  0  0  0  0  0  0  0
   -2.2030    2.3320   -1.6330 C   0  0  0  0  0  0  0  0  0  0  0  0
   -1.3760    2.7520   -2.5670 C   0  0  0  0  0  0  0  0  0  0  0  0
   -0.1170    1.9150   -2.5190 C   0  0  0  0  0  0  0  0  0  0  0  0
   -0.7130    0.6390   -1.9680 C   0  0  1  0  0  0  0  0  0  0  0  0
    0.2050   -0.4580   -1.7650 C   0  0  1  0  0  0  0  0  0  0  0  0
    0.9560   -0.6970   -3.1050 C   0  0  0  0  0  0  0  0  0  0  0  0
    1.9740   -1.7870   -2.9370 C   0  0  0  0  0  0  0  0  0  0  0  0
    3.0810   -1.3850   -1.9770 C   0  0  0  0  0  0  0  0  0  0  0  0
    2.6150   -0.2080   -1.2060 C   0  0  2  0  0  0  0  0  0  0  0  0
    3.5660    0.3540   -0.2120 C   0  0  0  0  0  0  0  0  0  0  0  0
    4.0520   -0.5010    0.8830 C   0  0  1  0  0  0  0  0  0  0  0  0
    3.0580   -1.0190    1.7200 O   0  0  0  0  0  0  0  0  0  0  0  0
    5.0280   -1.5170    0.3930 C   0  0  0  0  0  0  0  0  0  0  0  0
    6.3510   -1.4930    1.1630 C   0  0  0  0  0  0  0  0  0  0  0  0
    7.0360   -0.1600    0.9970 C   0  0  1  0  0  0  0  0  0  0  0  0
    7.5830   -0.0670   -0.2870 O   0  0  0  0  0  0  0  0  0  0  0  0
    6.0650    0.9900    1.2230 C   0  0  0  0  0  0  0  0  0  0  0  0
    4.8350    0.4240    1.8420 C   0  0  1  0  0  0  0  0  0  0  0  0
    3.9840    1.3920    2.3730 O   0  0  0  0  0  0  0  0  0  0  0  0
    1.2080   -0.4180   -0.7000 C   0  0  1  0  0  0  0  0  0  0  0  0
    0.9070    0.4390    0.3580 O   0  0  0  0  0  0  0  0  0  0  0  0
   -3.7660    0.9720    0.3800 C   0  0  0  0  0  0  0  0  0  0  0  0
  2  1  1  6
  2  3  1  0
  2  7  1  0
  2 34  1  0
  3  4  1  0
  4  5  1  0
  5  6  2  0
  7  8  1  0
  8  9  1  6
  8 10  1  0
 11 10  1  1
 11 12  1  0
 11 34  1  0
 12 13  1  6
 12 16  1  0
 13 14  2  0
 14 15  1  0
 16 15  1  1
 16 17  1  0
 17 18  1  6
 17 32  1  0
 18 19  1  0
 19 20  1  0
 20 21  1  0
 21 22  1  1
 21 32  1  0
 22 23  1  0
 23 24  1  1
 23 25  1  0
 23 30  1  0
 25 26  1  0
 26 27  1  0
 27 28  1  6
 27 29  1  0
 29 30  1  0
 30 31  1  6
 32 33  1  1
M  END
