
     RDKit          3D

 35 38  0  0  0  0  0  0  0  0999 V2000
   -4.0140    1.7670   -1.1150 C   0  0  0  0  0  0  0  0  0  0  0  0
   -4.0450    0.3170   -0.8250 C   0  0  0  0  0  0  0  0  0  0  0  0
   -4.9500   -0.5130   -1.4110 C   0  0  0  0  0  0  0  0  0  0  0  0
   -4.9670   -1.8400   -1.1110 C   0  0  0  0  0  0  0  0  0  0  0  0
   -4.0270   -2.3050   -0.1740 C   0  0  0  0  0  0  0  0  0  0  0  0
   -4.2440   -4.0420    0.2530 S   0  0  0  0  0  0  0  0  0  0  0  0
   -5.8090   -4.1380    1.2280 C   0  0  0  0  0  0  0  0  0  0  0  0
   -4.4180   -4.8500   -1.0480 O   0  0  0  0  0  0  0  0  0  0  0  0
   -3.1380   -1.4790    0.3860 C   0  0  0  0  0  0  0  0  0  0  0  0
   -3.0670   -0.1450    0.1200 C   0  0  0  0  0  0  0  0  0  0  0  0
   -2.3180    0.8740    0.7630 C   0  0  0  0  0  0  0  0  0  0  0  0
   -1.0190    1.3030    0.8170 N   0  0  0  0  0  0  0  0  0  0  0  0
    0.1830    0.7910    0.3570 C   0  0  0  0  0  0  0  0  0  0  0  0
    0.1730   -0.5140   -0.1550 C   0  0  0  0  0  0  0  0  0  0  0  0
    1.2400   -1.2180   -0.6310 C   0  0  0  0  0  0  0  0  0  0  0  0
    1.1140   -2.4380   -1.1310 F   0  0  0  0  0  0  0  0  0  0  0  0
    2.5150   -0.5760   -0.6030 C   0  0  0  0  0  0  0  0  0  0  0  0
    3.5620   -1.4050   -1.1170 N   0  0  0  0  0  0  0  0  0  0  0  0
    4.8750   -1.5550   -0.4830 C   0  0  0  0  0  0  0  0  0  0  0  0
    5.5970   -2.6950   -1.1870 C   0  0  0  0  0  0  0  0  0  0  0  0
    7.0180   -3.2940   -0.3760 S   0  0  2  0  0  0  0  0  0  0  0  0
    6.6100   -4.0640    0.9060 O   0  0  0  0  0  0  0  0  0  0  0  0
    8.0360   -2.2790   -0.0070 O   0  0  0  0  0  0  0  0  0  0  0  0
    7.8540   -4.7580   -1.6170 Cl  0  0  0  0  0  0  0  0  0  0  0  0
    2.5310    0.6800   -0.1250 C   0  0  0  0  0  0  0  0  0  0  0  0
    1.4450    1.4110    0.3500 C   0  0  0  0  0  0  0  0  0  0  0  0
    1.6310    2.8080    0.6980 C   0  0  0  0  0  0  0  0  0  0  0  0
    2.8150    3.5110    0.3920 C   0  0  0  0  0  0  0  0  0  0  0  0
    2.9360    4.8860    0.4500 C   0  0  0  0  0  0  0  0  0  0  0  0
    1.8440    5.6200    0.8430 C   0  0  0  0  0  0  0  0  0  0  0  0
    0.6750    4.9840    1.1590 C   0  0  0  0  0  0  0  0  0  0  0  0
    0.5850    3.6120    1.0870 C   0  0  0  0  0  0  0  0  0  0  0  0
   -0.8870    2.8850    1.6170 S   0  0  2  0  0  0  0  0  0  0  0  0
   -0.9750    2.6830    3.0800 O   0  0  0  0  0  0  0  0  0  0  0  0
   -2.1170    3.7100    1.1930 O   0  0  0  0  0  0  0  0  0  0  0  0
  1  2  1  0
  2  3  2  0
  2 10  1  0
  3  4  1  0
  4  5  2  0
  5  6  1  0
  5  9  1  0
  6  7  1  1
  6  8  2  0
  9 10  2  0
 10 11  1  0
 11 12  1  0
 12 13  1  0
 33 12  1  6
 13 14  2  0
 13 26  1  0
 14 15  1  0
 15 16  1  0
 15 17  2  0
 17 18  1  0
 17 25  1  0
 18 19  1  0
 19 20  1  0
 20 21  1  0
 21 22  2  0
 21 23  2  0
 21 24  1  6
 25 26  2  0
 26 27  1  0
 27 28  2  0
 27 32  1  0
 28 29  1  0
 29 30  2  0
 30 31  1  0
 31 32  2  0
 32 33  1  0
 33 34  2  0
 33 35  2  0
M  END
