
     RDKit          3D

 33 36  0  0  0  0  0  0  0  0999 V2000
    2.0300   -2.6270   -2.7940 C   0  0  0  0  0  0  0  0  0  0  0  0
    0.7930   -2.3760   -2.4220 C   0  0  0  0  0  0  0  0  0  0  0  0
    0.4390   -0.9450   -2.0760 C   0  0  0  0  0  0  0  0  0  0  0  0
    0.0200   -0.9420   -0.6620 C   0  0  2  0  0  0  0  0  0  0  0  0
   -1.1870   -1.8840   -0.5730 C   0  0  1  0  0  0  0  0  0  0  0  0
   -0.8100   -3.1990   -0.2650 O   0  0  0  0  0  0  0  0  0  0  0  0
   -2.1550   -1.3070    0.3630 C   0  0  2  0  0  0  0  0  0  0  0  0
   -2.5360   -2.2120    1.5270 C   0  0  0  0  0  0  0  0  0  0  0  0
   -3.5000   -1.1680   -0.3380 C   0  0  0  0  0  0  0  0  0  0  0  0
   -3.8920   -2.6040   -0.7460 C   0  0  0  0  0  0  0  0  0  0  0  0
   -1.5420   -0.0240    0.8120 C   0  0  2  0  0  0  0  0  0  0  0  0
   -2.6580    0.9630    0.7990 C   0  0  0  0  0  0  0  0  0  0  0  0
   -0.2760    0.3070    0.0860 C   0  0  2  0  0  0  0  0  0  0  0  0
   -0.1570    1.6090   -0.5500 C   0  0  1  0  0  0  0  0  0  0  0  0
    0.9890    1.5740   -1.3620 O   0  0  0  0  0  0  0  0  0  0  0  0
   -1.0850    2.3680   -1.3570 C   0  0  1  0  0  0  0  0  0  0  0  0
   -0.3670    3.6800   -1.7550 C   0  0  0  0  0  0  0  0  0  0  0  0
   -1.4890    1.8450   -2.7060 C   0  0  0  0  0  0  0  0  0  0  0  0
   -2.4520    2.7150   -3.4620 C   0  0  0  0  0  0  0  0  0  0  0  0
   -3.6500    2.9100   -2.7920 O   0  0  0  0  0  0  0  0  0  0  0  0
    0.1660    2.5890    0.6040 C   0  0  0  0  0  0  0  0  0  0  0  0
    0.3380    1.7630    1.7780 C   0  0  0  0  0  0  0  0  0  0  0  0
    0.8830    0.4800    1.0840 C   0  0  2  0  0  0  0  0  0  0  0  0
    2.1830    0.5190    0.6250 C   0  0  0  0  0  0  0  0  0  0  0  0
    3.4700    0.7170    0.0990 C   0  0  0  0  0  0  0  0  0  0  0  0
    4.3940   -0.0750    1.1140 C   0  0  0  0  0  0  0  0  0  0  0  0
    3.7240   -0.2880    2.4040 C   0  0  2  0  0  0  0  0  0  0  0  0
    4.5160   -1.4250    3.0870 C   0  0  0  0  0  0  0  0  0  0  0  0
    3.7990   -1.3140    4.3320 O   0  0  0  0  0  0  0  0  0  0  0  0
    2.4710   -1.2130    3.9350 C   0  0  0  0  0  0  0  0  0  0  0  0
    2.3790   -0.5800    2.7380 C   0  0  0  0  0  0  0  0  0  0  0  0
    0.9110   -0.4480    2.3010 C   0  0  2  0  0  0  0  0  0  0  0  0
    0.7470   -1.7930    1.9890 O   0  0  0  0  0  0  0  0  0  0  0  0
  1  2  2  0
  2  3  1  0
  4  3  1  6
  4  5  1  0
 13  4  1  6
  5  6  1  1
  5  7  1  0
  7  8  1  1
  7  9  1  0
  7 11  1  0
  9 10  1  0
 11 12  1  6
 11 13  1  0
 13 14  1  0
 13 23  1  0
 14 15  1  6
 14 16  1  0
 14 21  1  0
 16 17  1  6
 16 18  1  0
 18 19  1  0
 19 20  1  0
 21 22  1  0
 23 22  1  1
 23 24  1  0
 23 32  1  0
 24 25  1  0
 25 26  1  0
 27 26  1  6
 27 28  1  0
 27 31  1  0
 28 29  1  0
 29 30  1  0
 30 31  2  0
 31 32  1  0
 32 33  1  6
M  END
