
     RDKit          3D

 35 39  0  0  0  0  0  0  0  0999 V2000
    7.8110   -1.4380    3.9200 C   0  0  0  0  0  0  0  0  0  0  0  0
    7.0580   -0.4850    3.0650 C   0  0  0  0  0  0  0  0  0  0  0  0
    6.2250   -0.7280    2.0110 C   0  0  0  0  0  0  0  0  0  0  0  0
    5.7290    0.4440    1.4960 N   0  0  0  0  0  0  0  0  0  0  0  0
    4.8590    0.5090    0.3760 C   0  0  0  0  0  0  0  0  0  0  0  0
    3.5040    0.2420    0.4260 C   0  0  0  0  0  0  0  0  0  0  0  0
    2.6940    0.2550   -0.6660 C   0  0  0  0  0  0  0  0  0  0  0  0
    1.3160   -0.0130   -0.7720 N   0  0  0  0  0  0  0  0  0  0  0  0
    0.2380    0.4350   -0.0260 C   0  0  0  0  0  0  0  0  0  0  0  0
    0.3670    1.2270    0.9160 O   0  0  0  0  0  0  0  0  0  0  0  0
   -1.1000   -0.0550   -0.3780 C   0  0  0  0  0  0  0  0  0  0  0  0
   -1.3490   -1.4130   -0.3640 C   0  0  0  0  0  0  0  0  0  0  0  0
   -2.5650   -1.9200   -0.7400 C   0  0  0  0  0  0  0  0  0  0  0  0
   -3.6110   -1.1080   -1.1550 C   0  0  0  0  0  0  0  0  0  0  0  0
   -3.3590    0.2370   -1.1700 C   0  0  0  0  0  0  0  0  0  0  0  0
   -2.1070    0.7570   -0.7810 C   0  0  0  0  0  0  0  0  0  0  0  0
   -4.5500    0.9700   -1.6640 C   0  0  0  0  0  0  0  0  0  0  0  0
   -5.6240   -0.0640   -1.8270 C   0  0  2  0  0  0  0  0  0  0  0  0
   -6.8270    0.2060   -1.0860 N   0  0  0  0  0  0  0  0  0  0  0  0
   -6.8820    0.2990    0.3040 C   0  0  0  0  0  0  0  0  0  0  0  0
   -7.0820   -0.7600    1.1560 C   0  0  0  0  0  0  0  0  0  0  0  0
   -7.1420   -0.5580    2.4710 N   0  0  0  0  0  0  0  0  0  0  0  0
   -7.0200    0.6740    3.0350 C   0  0  0  0  0  0  0  0  0  0  0  0
   -6.8270    1.6940    2.1840 N   0  0  0  0  0  0  0  0  0  0  0  0
   -6.7500    1.5900    0.8750 C   0  0  0  0  0  0  0  0  0  0  0  0
   -5.0000   -1.3990   -1.5830 C   0  0  0  0  0  0  0  0  0  0  0  0
    3.2940    0.5690   -1.9060 C   0  0  0  0  0  0  0  0  0  0  0  0
    4.6350    0.8440   -2.0100 C   0  0  0  0  0  0  0  0  0  0  0  0
    5.2240    1.1600   -3.3690 C   0  0  2  0  0  0  0  0  0  0  0  0
    4.3100    0.7490   -4.3250 F   0  0  0  0  0  0  0  0  0  0  0  0
    6.3890    0.4840   -3.5820 F   0  0  0  0  0  0  0  0  0  0  0  0
    5.3810    2.5270   -3.5020 F   0  0  0  0  0  0  0  0  0  0  0  0
    5.3890    0.8110   -0.8780 C   0  0  0  0  0  0  0  0  0  0  0  0
    6.2530    1.4180    2.2330 C   0  0  0  0  0  0  0  0  0  0  0  0
    7.0680    0.8800    3.1970 N   0  0  0  0  0  0  0  0  0  0  0  0
  1  2  1  0
  2  3  2  0
  2 35  1  0
  3  4  1  0
  4  5  1  0
  4 34  1  0
  5  6  2  0
  5 33  1  0
  6  7  1  0
  7  8  1  0
  7 27  2  0
  8  9  1  0
  9 10  2  0
  9 11  1  0
 11 12  2  0
 11 16  1  0
 12 13  1  0
 13 14  2  0
 14 15  1  0
 14 26  1  0
 15 16  2  0
 15 17  1  0
 17 18  1  0
 18 19  1  1
 18 26  1  0
 19 20  1  0
 20 21  2  0
 20 25  1  0
 21 22  1  0
 22 23  2  0
 23 24  1  0
 24 25  2  0
 27 28  1  0
 28 29  1  0
 28 33  2  0
 29 30  1  6
 29 31  1  0
 29 32  1  0
 34 35  2  0
M  END
