
     RDKit          3D

 34 37  0  0  0  0  0  0  0  0999 V2000
   -0.4330    1.2780   -2.2360 C   0  0  0  0  0  0  0  0  0  0  0  0
    0.5330    0.3450   -1.5400 C   0  0  1  0  0  0  0  0  0  0  0  0
    0.9540   -0.5850   -2.6570 C   0  0  0  0  0  0  0  0  0  0  0  0
    1.6380    1.2850   -1.1290 C   0  0  2  0  0  0  0  0  0  0  0  0
    2.5860    1.7160   -2.1870 C   0  0  2  0  0  0  0  0  0  0  0  0
    2.2370    2.0440   -3.4160 O   0  0  0  0  0  0  0  0  0  0  0  0
    3.8070    0.7730   -2.0540 C   0  0  0  0  0  0  0  0  0  0  0  0
    4.0160    1.0050   -0.6360 C   0  0  2  0  0  0  0  0  0  0  0  0
    4.8880    0.1950    0.2000 C   0  0  0  0  0  0  0  0  0  0  0  0
    5.0240    1.0050    1.4970 C   0  0  2  0  0  0  0  0  0  0  0  0
    5.6910    0.2750    2.4680 O   0  0  0  0  0  0  0  0  0  0  0  0
    3.7730    1.5670    2.0310 C   0  0  0  0  0  0  0  0  0  0  0  0
    2.7540    2.0310    1.0420 C   0  0  0  0  0  0  0  0  0  0  0  0
    2.5840    0.9640   -0.0540 C   0  0  1  0  0  0  0  0  0  0  0  0
    2.2860   -0.3670    0.5490 C   0  0  0  0  0  0  0  0  0  0  0  0
    0.8050   -0.3050    0.8440 C   0  0  0  0  0  0  0  0  0  0  0  0
   -0.0560   -0.4610   -0.3830 C   0  0  2  0  0  0  0  0  0  0  0  0
    0.2510   -1.9560   -0.6990 C   0  0  0  0  0  0  0  0  0  0  0  0
   -1.5260   -0.3630   -0.1650 C   0  0  1  0  0  0  0  0  0  0  0  0
   -2.3970   -1.0420   -1.2100 C   0  0  0  0  0  0  0  0  0  0  0  0
   -3.1680   -2.2500   -0.8100 C   0  0  2  0  0  0  0  0  0  0  0  0
   -2.6920   -3.5070   -1.5910 C   0  0  0  0  0  0  0  0  0  0  0  0
   -4.6500   -2.1850   -1.2240 C   0  0  0  0  0  0  0  0  0  0  0  0
   -5.3300   -1.1290   -0.6820 O   0  0  0  0  0  0  0  0  0  0  0  0
   -3.1020   -2.6460    0.5930 C   0  0  0  0  0  0  0  0  0  0  0  0
   -3.4960   -3.7600    0.8960 O   0  0  0  0  0  0  0  0  0  0  0  0
   -2.5940   -1.7860    1.6510 C   0  0  1  0  0  0  0  0  0  0  0  0
   -3.7780   -1.6450    2.6370 C   0  0  0  0  0  0  0  0  0  0  0  0
   -1.6250   -2.3720    2.4260 O   0  0  0  0  0  0  0  0  0  0  0  0
   -2.2140   -0.3950    1.1110 C   0  0  1  0  0  0  0  0  0  0  0  0
   -2.0200    0.5540    2.2100 C   0  0  0  0  0  0  0  0  0  0  0  0
   -2.2700    2.0000    2.1430 C   0  0  0  0  0  0  0  0  0  0  0  0
   -1.5240    2.9020    1.2490 C   0  0  0  0  0  0  0  0  0  0  0  0
   -1.9890    4.2340    1.4860 O   0  0  0  0  0  0  0  0  0  0  0  0
  2  1  1  6
  2  3  1  0
  2  4  1  0
  2 17  1  0
  4  5  1  6
  4 14  1  0
  5  6  1  6
  5  7  1  0
  8  7  1  6
  8  9  1  0
  8 14  1  0
  9 10  1  0
 10 11  1  1
 10 12  1  0
 12 13  1  0
 14 13  1  1
 14 15  1  0
 15 16  1  0
 16 17  1  0
 17 18  1  6
 17 19  1  0
 19 20  1  6
 19 30  1  0
 20 21  1  0
 21 22  1  6
 21 23  1  0
 21 25  1  0
 23 24  1  0
 25 26  2  0
 25 27  1  0
 27 28  1  1
 27 29  1  0
 27 30  1  0
 30 31  1  1
 31 32  1  0
 32 33  1  0
 33 34  1  0
M  END
