
     RDKit          3D

 35 38  0  0  0  0  0  0  0  0999 V2000
   10.0310    1.4560    1.0350 C   0  0  0  0  0  0  0  0  0  0  0  0
    8.8060    0.9180    1.4850 O   0  0  0  0  0  0  0  0  0  0  0  0
    8.7900   -0.4370    1.2540 C   0  0  0  0  0  0  0  0  0  0  0  0
    7.5240   -1.0980    1.6940 C   0  0  0  0  0  0  0  0  0  0  0  0
    6.3810   -0.5870    1.0370 O   0  0  0  0  0  0  0  0  0  0  0  0
    6.1970   -0.6170   -0.3150 C   0  0  0  0  0  0  0  0  0  0  0  0
    7.0320   -1.1020   -1.0710 O   0  0  0  0  0  0  0  0  0  0  0  0
    4.9460   -0.0480   -0.9140 C   0  0  0  0  0  0  0  0  0  0  0  0
    4.5690    0.0300   -2.1750 C   0  0  0  0  0  0  0  0  0  0  0  0
    3.3870    0.5830   -2.5090 C   0  0  0  0  0  0  0  0  0  0  0  0
    2.6110    1.0530   -1.4600 C   0  0  0  0  0  0  0  0  0  0  0  0
    1.2920    1.7210   -1.4030 C   0  0  0  0  0  0  0  0  0  0  0  0
    0.4310    1.3830   -0.4400 C   0  0  0  0  0  0  0  0  0  0  0  0
    0.5750    0.4320    0.6010 N   0  0  0  0  0  0  0  0  0  0  0  0
   -0.6340    0.4420    1.3840 C   0  0  0  0  0  0  0  0  0  0  0  0
   -0.8250   -0.3030    2.4000 O   0  0  0  0  0  0  0  0  0  0  0  0
   -1.5530    1.3860    0.8630 N   0  0  0  0  0  0  0  0  0  0  0  0
   -2.8710    1.6890    1.3730 C   0  0  0  0  0  0  0  0  0  0  0  0
   -3.9260    0.8320    0.7520 C   0  0  0  0  0  0  0  0  0  0  0  0
   -3.9470   -0.4980    0.5250 C   0  0  0  0  0  0  0  0  0  0  0  0
   -5.0240   -1.0720   -0.0560 C   0  0  0  0  0  0  0  0  0  0  0  0
   -6.0630   -0.2080   -0.3810 C   0  0  0  0  0  0  0  0  0  0  0  0
   -5.4820    1.4340    0.1480 S   0  0  0  0  0  0  0  0  0  0  0  0
   -7.3400   -0.4120   -0.9910 C   0  0  0  0  0  0  0  0  0  0  0  0
   -8.3190    0.3780   -0.7550 C   0  0  0  0  0  0  0  0  0  0  0  0
   -8.3880    1.5470    0.1010 C   0  0  0  0  0  0  0  0  0  0  0  0
   -8.6560    2.6910   -0.6680 F   0  0  0  0  0  0  0  0  0  0  0  0
   -7.7350   -1.8600   -2.0870 S   0  0  0  0  0  0  0  0  0  0  0  0
   -7.3160   -3.2280   -0.9540 C   0  0  0  0  0  0  0  0  0  0  0  0
   -5.9010   -3.3890   -0.6860 C   0  0  0  0  0  0  0  0  0  0  0  0
   -5.2770   -5.0690   -0.8780 Cl  0  0  0  0  0  0  0  0  0  0  0  0
   -4.9880   -2.5330   -0.3290 C   0  0  0  0  0  0  0  0  0  0  0  0
   -0.9040    1.9670   -0.2590 C   0  0  0  0  0  0  0  0  0  0  0  0
   -1.3960    2.8600   -1.0010 O   0  0  0  0  0  0  0  0  0  0  0  0
    3.6490    0.6640   -0.0360 S   0  0  0  0  0  0  0  0  0  0  0  0
  1  2  1  0
  2  3  1  0
  3  4  1  0
  4  5  1  0
  5  6  1  0
  6  7  2  0
  6  8  1  0
  8  9  2  0
  8 35  1  0
  9 10  1  0
 10 11  2  0
 11 12  1  0
 11 35  1  0
 12 13  2  3
 13 14  1  0
 13 33  1  0
 14 15  1  0
 15 16  2  0
 15 17  1  0
 17 18  1  0
 17 33  1  0
 18 19  1  0
 19 20  2  0
 19 23  1  0
 20 21  1  0
 21 22  2  0
 21 32  1  0
 22 23  1  0
 22 24  1  0
 24 25  2  3
 24 28  1  0
 25 26  1  0
 26 27  1  0
 28 29  1  0
 29 30  1  0
 30 31  1  0
 30 32  2  0
 33 34  2  0
M  END
