
     RDKit          3D

 25 26  0  0  0  0  0  0  0  0999 V2000
    0.2820   -1.3660    1.0790 C   0  0  0  0  0  0  0  0  0  0  0  0
   -0.8640   -0.8870    0.6360 C   0  0  0  0  0  0  0  0  0  0  0  0
   -0.7670    0.1340   -0.3420 N   0  0  0  0  0  0  0  0  0  0  0  0
    0.2070    1.0910   -0.4020 C   0  0  0  0  0  0  0  0  0  0  0  0
    1.2320    1.2580    0.5450 N   0  0  0  0  0  0  0  0  0  0  0  0
    1.4840    1.5350    1.8440 N   0  0  0  0  0  0  0  0  0  0  0  0
    0.9050    1.9050    3.4450 Cl  0  0  0  0  0  0  0  0  0  0  0  0
    2.4850    1.3260    1.0230 N   0  0  0  0  0  0  0  0  0  0  0  0
    3.8870    1.2430    0.8350 C   0  0  0  0  0  0  0  0  0  0  0  0
    4.4910    2.0600   -0.1640 N   0  0  0  0  0  0  0  0  0  0  0  0
    4.4270    1.6450   -1.5420 C   0  0  0  0  0  0  0  0  0  0  0  0
    4.6000    0.4200    1.5890 C   0  0  0  0  0  0  0  0  0  0  0  0
    3.9210   -0.4010    2.6180 C   0  0  0  0  0  0  0  0  0  0  0  0
    5.9920    0.3350    1.4060 O   0  0  0  0  0  0  0  0  0  0  0  0
    0.0060    1.8810   -1.5000 N   0  0  0  0  0  0  0  0  0  0  0  0
   -1.0880    1.4110   -2.1080 C   0  0  0  0  0  0  0  0  0  0  0  0
   -1.5840    1.9530   -3.2470 F   0  0  0  0  0  0  0  0  0  0  0  0
   -1.5670    0.3260   -1.3880 C   0  0  0  0  0  0  0  0  0  0  0  0
   -2.6700   -0.3680   -1.7550 O   0  0  0  0  0  0  0  0  0  0  0  0
   -3.5480   -0.2160   -2.8050 C   0  0  0  0  0  0  0  0  0  0  0  0
   -4.2230    1.1280   -2.7080 C   0  0  0  0  0  0  0  0  0  0  0  0
   -2.1230   -1.4440    1.1870 C   0  0  2  0  0  0  0  0  0  0  0  0
   -2.7110   -2.4500    0.2490 C   0  0  0  0  0  0  0  0  0  0  0  0
   -3.1590   -0.3630    1.4150 C   0  0  0  0  0  0  0  0  0  0  0  0
   -1.8790   -2.1140    2.5320 C   0  0  0  0  0  0  0  0  0  0  0  0
  1  2  2  0
  2  3  1  0
  2 22  1  0
  3  4  1  0
  3 18  1  0
  4  5  1  0
  4 15  2  0
  5  6  1  0
  5  8  1  0
  6  7  1  0
  6  8  1  0
  8  9  1  0
  9 10  1  0
  9 12  2  3
 10 11  1  0
 12 13  1  0
 12 14  1  0
 15 16  1  0
 16 17  1  0
 16 18  2  0
 18 19  1  0
 19 20  1  0
 20 21  1  0
 22 23  1  6
 22 24  1  0
 22 25  1  0
M  END
