
     RDKit          3D

 25 28  0  0  0  0  0  0  0  0999 V2000
   -0.2910   -3.0800    3.1160 C   0  0  0  0  0  0  0  0  0  0  0  0
   -0.5540   -1.6130    3.3900 C   0  0  0  0  0  0  0  0  0  0  0  0
   -0.8250   -0.8820    2.0870 C   0  0  0  0  0  0  0  0  0  0  0  0
   -1.9140   -0.2910    1.7970 N   0  0  0  0  0  0  0  0  0  0  0  0
   -1.8140    0.2680    0.5390 C   0  0  1  0  0  0  0  0  0  0  0  0
   -2.8210    0.3270   -0.4410 C   0  0  0  0  0  0  0  0  0  0  0  0
   -3.2850   -0.3470   -1.5900 O   0  0  0  0  0  0  0  0  0  0  0  0
   -4.1780    0.2970   -2.4860 C   0  0  0  0  0  0  0  0  0  0  0  0
   -3.2960    1.3510    0.0880 N   0  0  0  0  0  0  0  0  0  0  0  0
   -2.1700    1.7050    0.4010 C   0  0  0  0  0  0  0  0  0  0  0  0
   -0.9630    2.4280    0.7300 C   0  0  0  0  0  0  0  0  0  0  0  0
   -0.7800    3.7500    1.0930 O   0  0  0  0  0  0  0  0  0  0  0  0
   -1.3270    4.8350    0.3490 C   0  0  0  0  0  0  0  0  0  0  0  0
    0.1050    1.5920    0.6400 C   0  0  0  0  0  0  0  0  0  0  0  0
    1.5160    1.9800    0.9080 C   0  0  0  0  0  0  0  0  0  0  0  0
   -0.3610    0.2860    0.2230 C   0  0  2  0  0  0  0  0  0  0  0  0
   -0.0740    0.0130   -1.1950 N   0  0  0  0  0  0  0  0  0  0  0  0
    1.1390   -0.0260   -1.6510 N   0  0  0  0  0  0  0  0  0  0  0  0
    2.2430   -0.2830   -2.0120 C   0  0  0  0  0  0  0  0  0  0  0  0
    3.0550    0.7070   -2.5640 F   0  0  0  0  0  0  0  0  0  0  0  0
    2.9120   -1.5680   -1.9510 N   0  0  0  0  0  0  0  0  0  0  0  0
    2.2000   -2.7420   -2.3370 C   0  0  0  0  0  0  0  0  0  0  0  0
    4.2720   -1.6430   -1.5070 C   0  0  0  0  0  0  0  0  0  0  0  0
    0.1190   -0.7930    1.0250 N   0  0  1  0  0  0  0  0  0  0  0  0
    1.6770   -0.5170    1.7440 Cl  0  0  0  0  0  0  0  0  0  0  0  0
  1  2  1  0
  2  3  1  0
  3  4  2  0
  3 24  1  0
  5  4  1  1
  5  6  1  0
  5 10  1  0
  5 16  1  0
  6  7  1  0
  6  9  2  0
  7  8  1  0
  9 10  2  0
 10 11  1  0
 11 12  1  0
 11 14  2  0
 12 13  1  0
 14 15  1  0
 14 16  1  0
 16 17  1  6
 16 24  1  0
 17 18  1  0
 18 19  2  3
 19 20  1  0
 19 21  1  0
 21 22  1  0
 21 23  1  0
 24 25  1  1
 10  6  1  0
M  CHG  2   9   1  24   1
M  END
