
     RDKit          3D

 26 28  0  0  0  0  0  0  0  0999 V2000
   -3.5600    0.2440   -1.3830 C   0  0  0  0  0  0  0  0  0  0  0  0
   -2.9010   -0.2340   -0.3550 C   0  0  0  0  0  0  0  0  0  0  0  0
   -3.5100   -1.0040    0.7570 C   0  0  0  0  0  0  0  0  0  0  0  0
   -2.4060   -1.7990    1.3530 C   0  0  0  0  0  0  0  0  0  0  0  0
   -1.1220   -1.2070    0.8440 C   0  0  0  0  0  0  0  0  0  0  0  0
   -1.4220   -0.1190   -0.0700 C   0  0  1  0  0  0  0  0  0  0  0  0
   -0.7860   -0.3190   -1.3690 N   0  0  0  0  0  0  0  0  0  0  0  0
    0.3750    0.1440   -1.6880 C   0  0  0  0  0  0  0  0  0  0  0  0
    1.1810    0.1140   -2.8210 N   0  0  0  0  0  0  0  0  0  0  0  0
    0.9990   -0.6040   -3.9620 O   0  0  0  0  0  0  0  0  0  0  0  0
   -0.1530   -1.8140   -3.7780 Cl  0  0  0  0  0  0  0  0  0  0  0  0
    2.2750    0.9930   -2.5950 N   0  0  0  0  0  0  0  0  0  0  0  0
    2.1860    1.4800   -1.4290 N   0  0  0  0  0  0  0  0  0  0  0  0
    1.1050    1.0140   -0.6870 C   0  0  2  0  0  0  0  0  0  0  0  0
    1.6020    0.1580    0.3650 N   0  0  0  0  0  0  0  0  0  0  0  0
    1.7450    0.8330    1.5260 F   0  0  0  0  0  0  0  0  0  0  0  0
    2.5850   -0.7760    0.2270 C   0  0  1  0  0  0  0  0  0  0  0  0
    2.9860   -1.2210    1.7020 C   0  0  0  0  0  0  0  0  0  0  0  0
    2.1640   -2.0720   -0.3870 C   0  0  0  0  0  0  0  0  0  0  0  0
    3.9020   -0.3700   -0.3270 C   0  0  0  0  0  0  0  0  0  0  0  0
    4.7600   -1.1990   -0.5520 O   0  0  0  0  0  0  0  0  0  0  0  0
    0.0480    1.9090   -0.1510 C   0  0  0  0  0  0  0  0  0  0  0  0
    0.1050    3.1840   -0.1440 C   0  0  0  0  0  0  0  0  0  0  0  0
   -0.8190    4.0770    0.3270 O   0  0  0  0  0  0  0  0  0  0  0  0
   -1.1210    1.2310    0.3890 N   0  0  0  0  0  0  0  0  0  0  0  0
   -1.9100    1.9190    1.3590 C   0  0  0  0  0  0  0  0  0  0  0  0
  1  2  2  0
  2  3  1  0
  2  6  1  0
  3  4  1  0
  4  5  1  0
  6  5  1  1
  6  7  1  0
  6 25  1  0
  7  8  2  0
  8  9  1  0
  8 14  1  0
  9 10  1  0
  9 12  1  0
 10 11  1  0
 12 13  2  0
 13 14  1  0
 14 15  1  1
 14 22  1  0
 15 16  1  0
 15 17  1  0
 17 18  1  1
 17 19  1  0
 17 20  1  0
 20 21  2  0
 22 23  2  3
 22 25  1  0
 23 24  1  0
 25 26  1  0
M  END
