
     RDKit          3D

 25 26  0  0  0  0  0  0  0  0999 V2000
   -1.3570    1.2110    2.4500 C   0  0  0  0  0  0  0  0  0  0  0  0
   -1.7150    0.2850    1.5730 C   0  0  0  0  0  0  0  0  0  0  0  0
   -1.4590   -1.1440    1.6570 C   0  0  0  0  0  0  0  0  0  0  0  0
   -2.3040   -1.7850    0.8660 C   0  0  0  0  0  0  0  0  0  0  0  0
   -3.1820   -0.8350    0.1970 C   0  0  0  0  0  0  0  0  0  0  0  0
   -4.3460   -1.0250   -0.3790 C   0  0  0  0  0  0  0  0  0  0  0  0
   -5.2290    0.2790   -1.1260 Cl  0  0  0  0  0  0  0  0  0  0  0  0
   -2.4610    0.4820    0.2960 C   0  0  1  0  0  0  0  0  0  0  0  0
   -3.3680    1.6140    0.3330 C   0  0  0  0  0  0  0  0  0  0  0  0
   -4.3290    1.7870    1.0910 O   0  0  0  0  0  0  0  0  0  0  0  0
   -2.9850    2.5950   -0.7040 C   0  0  1  0  0  0  0  0  0  0  0  0
   -2.3260    3.6950   -0.1550 O   0  0  0  0  0  0  0  0  0  0  0  0
   -2.0820    1.7910   -1.5680 C   0  0  0  0  0  0  0  0  0  0  0  0
   -1.7560    2.0090   -2.8060 N   0  0  0  0  0  0  0  0  0  0  0  0
   -1.5940    0.6890   -0.8150 N   0  0  0  0  0  0  0  0  0  0  0  0
   -0.4580   -0.0810   -1.0910 N   0  0  0  0  0  0  0  0  0  0  0  0
    0.7020    0.4230   -1.2810 C   0  0  0  0  0  0  0  0  0  0  0  0
    0.9110    2.1490   -1.1990 Cl  0  0  0  0  0  0  0  0  0  0  0  0
    1.7970   -0.4240   -1.5540 N   0  0  0  0  0  0  0  0  0  0  0  0
    2.5430   -0.1130   -2.6590 F   0  0  0  0  0  0  0  0  0  0  0  0
    2.1310   -1.5240   -0.7690 N   0  0  0  0  0  0  0  0  0  0  0  0
    3.2470   -1.2350    0.1130 C   0  0  1  0  0  0  0  0  0  0  0  0
    4.4820   -0.8500   -0.6330 C   0  0  0  0  0  0  0  0  0  0  0  0
    2.9120   -0.1990    1.1340 C   0  0  0  0  0  0  0  0  0  0  0  0
    3.5580   -2.5280    0.8720 C   0  0  0  0  0  0  0  0  0  0  0  0
  1  2  2  0
  2  3  1  0
  2  8  1  0
  3  4  2  0
  4  5  1  0
  5  6  2  3
  5  8  1  0
  6  7  1  0
  8  9  1  0
  8 15  1  6
  9 10  2  0
  9 11  1  0
 11 12  1  1
 11 13  1  0
 13 14  2  0
 13 15  1  0
 15 16  1  0
 16 17  2  3
 17 18  1  0
 17 19  1  0
 19 20  1  0
 19 21  1  0
 21 22  1  0
 22 23  1  6
 22 24  1  0
 22 25  1  0
M  END
