
     RDKit          3D

 24 25  0  0  0  0  0  0  0  0999 V2000
   -0.3340   -2.8780    1.3830 C   0  0  0  0  0  0  0  0  0  0  0  0
   -0.7730   -2.0940    0.4280 C   0  0  0  0  0  0  0  0  0  0  0  0
   -2.0980   -2.5080   -0.1850 C   0  0  0  0  0  0  0  0  0  0  0  0
   -0.0760   -0.8830   -0.0950 C   0  0  1  0  0  0  0  0  0  0  0  0
    1.1730   -0.6320    0.6850 C   0  0  1  0  0  0  0  0  0  0  0  0
    0.9690   -0.3810    2.1510 C   0  0  0  0  0  0  0  0  0  0  0  0
    2.0920   -1.7840    0.5820 N   0  0  0  0  0  0  0  0  0  0  0  0
    3.2150   -1.3050    0.2030 C   0  0  0  0  0  0  0  0  0  0  0  0
    3.1040   -0.0760   -0.2350 C   0  0  0  0  0  0  0  0  0  0  0  0
    2.0110    0.4920    0.1940 C   0  0  0  0  0  0  0  0  0  0  0  0
    1.8000    1.8460    0.1500 O   0  0  0  0  0  0  0  0  0  0  0  0
    2.7950    2.8210    0.2860 C   0  0  0  0  0  0  0  0  0  0  0  0
    0.1380   -1.0050   -1.5720 C   0  0  2  0  0  0  0  0  0  0  0  0
    1.0920   -2.0260   -2.0410 C   0  0  0  0  0  0  0  0  0  0  0  0
    0.4530    0.3860   -1.9450 C   0  0  0  0  0  0  0  0  0  0  0  0
    1.2950    0.8760   -2.7280 O   0  0  0  0  0  0  0  0  0  0  0  0
   -0.5390    1.1330   -1.1120 C   0  0  0  0  0  0  0  0  0  0  0  0
   -0.9710    2.3520   -1.3940 C   0  0  0  0  0  0  0  0  0  0  0  0
   -1.9400    3.1130   -0.6040 C   0  0  0  0  0  0  0  0  0  0  0  0
   -0.9010    0.3140   -0.0170 N   0  0  0  0  0  0  0  0  0  0  0  0
   -1.8660    0.5740    0.9950 N   0  0  0  0  0  0  0  0  0  0  0  0
   -1.6250    1.4300    1.9210 N   0  0  0  0  0  0  0  0  0  0  0  0
   -3.0770   -0.0470    1.0830 O   0  0  0  0  0  0  0  0  0  0  0  0
   -3.9810    0.1510    0.1200 F   0  0  0  0  0  0  0  0  0  0  0  0
  1  2  2  0
  2  3  1  0
  4  2  1  1
  4  5  1  0
  4 13  1  0
  4 20  1  0
  5  6  1  1
  5  7  1  0
  5 10  1  0
  7  8  2  0
  8  9  2  0
  9 10  2  0
 10 11  1  0
 11 12  1  0
 13 14  1  1
 13 15  1  0
 15 16  2  0
 15 17  1  0
 17 18  2  3
 17 20  1  0
 18 19  1  0
 20 21  1  0
 21 22  2  0
 21 23  1  0
 23 24  1  0
M  CHG  1  21   1
M  END
