
     RDKit          3D

 12 11  0  0  0  0  0  0  0  0999 V2000
    5.0520    0.0980    0.6350 C   0  0  0  0  0  0  0  0  0  0  0  0
    3.9650    0.9540    0.4560 O   0  0  0  0  0  0  0  0  0  0  0  0
    2.8690    0.1600    0.1490 C   0  0  0  0  0  0  0  0  0  0  0  0
    1.6120    0.9710   -0.0720 C   0  0  0  0  0  0  0  0  0  0  0  0
    0.5660    0.0010   -0.3810 N   0  0  0  0  0  0  0  0  0  0  0  0
   -0.5210    0.6350   -1.0640 C   0  0  0  0  0  0  0  0  0  0  0  0
   -1.8730    0.1670   -0.6250 C   0  0  1  0  0  0  0  0  0  0  0  0
   -2.8280    0.8630   -1.3690 O   0  0  0  0  0  0  0  0  0  0  0  0
   -2.0950   -1.3060   -0.8600 C   0  0  0  0  0  0  0  0  0  0  0  0
   -3.4250   -1.7110   -0.4420 N   0  0  0  0  0  0  0  0  0  0  0  0
   -2.1210    0.5000    0.8270 C   0  0  0  0  0  0  0  0  0  0  0  0
   -1.9770    1.8920    0.9650 O   0  0  0  0  0  0  0  0  0  0  0  0
  1  2  1  0
  2  3  1  0
  3  4  1  0
  4  5  1  0
  5  6  1  0
  6  7  1  0
  7  8  1  6
  7  9  1  0
  7 11  1  0
  9 10  1  0
 11 12  1  0
M  CHG  2   5   1  10   1
M  END
