
     RDKit          3D

 13 12  0  0  0  0  0  0  0  0999 V2000
    4.2750    0.7370   -0.2350 N   0  0  0  0  0  0  0  0  0  0  0  0
    2.9200    0.2470   -0.5340 C   0  0  0  0  0  0  0  0  0  0  0  0
    2.3160   -0.3900    0.6940 C   0  0  0  0  0  0  0  0  0  0  0  0
    1.0530   -0.8830    0.5290 O   0  0  0  0  0  0  0  0  0  0  0  0
    0.1130    0.0860    0.1530 C   0  0  0  0  0  0  0  0  0  0  0  0
   -1.2520   -0.4810   -0.0120 C   0  0  1  0  0  0  0  0  0  0  0  0
   -1.1110   -1.5450   -1.0390 N   0  0  0  0  0  0  0  0  0  0  0  0
   -1.8540   -1.1010    1.1930 C   0  0  0  0  0  0  0  0  0  0  0  0
   -1.1110   -2.1210    1.7330 O   0  0  0  0  0  0  0  0  0  0  0  0
   -2.1460    0.5710   -0.6490 C   0  0  1  0  0  0  0  0  0  0  0  0
   -3.3830   -0.0360   -0.9870 O   0  0  0  0  0  0  0  0  0  0  0  0
   -2.3750    1.7690    0.2030 C   0  0  0  0  0  0  0  0  0  0  0  0
   -1.2580    2.4900    0.5620 O   0  0  0  0  0  0  0  0  0  0  0  0
  1  2  1  0
  2  3  1  0
  3  4  1  0
  4  5  1  0
  5  6  1  0
  6  7  1  6
  6  8  1  0
  6 10  1  0
  8  9  1  0
 10 11  1  1
 10 12  1  0
 12 13  1  0
M  CHG  2   1   1   7   1
M  END
