
     RDKit          3D

 13 12  0  0  0  0  0  0  0  0999 V2000
    5.4190    0.8020    0.5270 N   0  0  0  0  0  0  0  0  0  0  0  0
    5.1200   -0.5800    0.2590 O   0  0  0  0  0  0  0  0  0  0  0  0
    3.6870   -0.4300    0.5940 C   0  0  0  0  0  0  0  0  0  0  0  0
    3.0160   -0.8420   -0.6320 C   0  0  0  0  0  0  0  0  0  0  0  0
    1.6950   -0.3230   -0.8020 O   0  0  0  0  0  0  0  0  0  0  0  0
    1.1130   -0.4140    0.5060 C   0  0  0  0  0  0  0  0  0  0  0  0
   -0.3550    0.1880    0.5300 C   0  0  0  0  0  0  0  0  0  0  0  0
   -0.9330   -0.6970   -0.4590 O   0  0  0  0  0  0  0  0  0  0  0  0
   -2.2620   -0.8200   -0.2300 C   0  0  0  0  0  0  0  0  0  0  0  0
   -3.1160    0.2480    0.4440 C   0  0  1  0  0  0  0  0  0  0  0  0
   -3.0580    1.4850   -0.2650 N   0  0  0  0  0  0  0  0  0  0  0  0
   -4.4630   -0.3560    0.5650 C   0  0  0  0  0  0  0  0  0  0  0  0
   -4.9550   -0.5060   -0.7280 O   0  0  0  0  0  0  0  0  0  0  0  0
  1  2  1  0
  2  3  1  0
  3  4  1  0
  4  5  1  0
  5  6  1  0
  6  7  1  0
  7  8  1  0
  8  9  1  0
  9 10  1  0
 10 11  1  6
 10 12  1  0
 12 13  1  0
M  CHG  2   1   1  11   1
M  END
