
     RDKit          3D

 12 11  0  0  0  0  0  0  0  0999 V2000
   -1.8150   -0.1270   -1.3550 C   0  0  0  0  0  0  0  0  0  0  0  0
   -0.7370    0.0330   -0.2650 C   0  0  1  0  0  0  0  0  0  0  0  0
   -1.0370   -0.9960    0.7890 C   0  0  0  0  0  0  0  0  0  0  0  0
   -1.1620   -2.3310    0.2380 N   0  0  0  0  0  0  0  0  0  0  0  0
    0.4400   -0.2360   -0.9190 O   0  0  0  0  0  0  0  0  0  0  0  0
    1.6050   -0.2170   -0.2450 C   0  0  0  0  0  0  0  0  0  0  0  0
    2.7840   -0.5810   -1.1780 C   0  0  0  0  0  0  0  0  0  0  0  0
    3.9740   -0.5280   -0.3490 N   0  0  0  0  0  0  0  0  0  0  0  0
   -0.7820    1.4300    0.1890 C   0  0  2  0  0  0  0  0  0  0  0  0
    0.1960    1.8270    1.0880 O   0  0  0  0  0  0  0  0  0  0  0  0
   -2.0920    1.9170    0.7470 C   0  0  0  0  0  0  0  0  0  0  0  0
   -3.1970    1.6240   -0.0160 O   0  0  0  0  0  0  0  0  0  0  0  0
  2  1  1  6
  2  3  1  0
  2  5  1  0
  2  9  1  0
  3  4  1  0
  5  6  1  0
  6  7  1  0
  7  8  1  0
  9 10  1  1
  9 11  1  0
 11 12  1  0
M  CHG  2   4   1   8   1
M  END
