
     RDKit          3D

 22 24  0  0  0  0  0  0  0  0999 V2000
    3.7130   -1.8100   -0.1150 C   0  0  0  0  0  0  0  0  0  0  0  0
    3.9560   -0.5870    0.3310 C   0  0  0  0  0  0  0  0  0  0  0  0
    5.1130   -0.3240    1.0770 O   0  0  0  0  0  0  0  0  0  0  0  0
    5.3790    0.9400    1.5430 C   0  0  0  0  0  0  0  0  0  0  0  0
    4.5410    1.9230    1.2900 C   0  0  0  0  0  0  0  0  0  0  0  0
    3.3030    1.7320    0.5140 C   0  0  0  0  0  0  0  0  0  0  0  0
    3.0270    0.5260    0.0550 C   0  0  0  0  0  0  0  0  0  0  0  0
    1.8630    0.3660   -0.7080 N   0  0  0  0  0  0  0  0  0  0  0  0
    0.7710   -0.4420   -0.3460 C   0  0  0  0  0  0  0  0  0  0  0  0
    0.7890   -1.0710    0.7290 O   0  0  0  0  0  0  0  0  0  0  0  0
   -0.3900   -0.5390   -1.2460 C   0  0  0  0  0  0  0  0  0  0  0  0
   -1.5680    0.1620   -0.7760 N   0  0  0  0  0  0  0  0  0  0  0  0
   -1.7700    1.4670   -1.0940 C   0  0  0  0  0  0  0  0  0  0  0  0
   -0.8920    2.0420   -1.8120 O   0  0  0  0  0  0  0  0  0  0  0  0
   -2.8620    2.1800   -0.6810 C   0  0  0  0  0  0  0  0  0  0  0  0
   -3.8050    1.5410    0.0980 C   0  0  0  0  0  0  0  0  0  0  0  0
   -3.6000    0.2010    0.4250 C   0  0  0  0  0  0  0  0  0  0  0  0
   -4.5460   -0.4310    1.2030 C   0  0  0  0  0  0  0  0  0  0  0  0
   -4.3650   -1.7460    1.5350 C   0  0  0  0  0  0  0  0  0  0  0  0
   -3.2640   -2.4230    1.1050 C   0  0  0  0  0  0  0  0  0  0  0  0
   -2.2950   -1.8220    0.3240 C   0  0  0  0  0  0  0  0  0  0  0  0
   -2.4640   -0.4960   -0.0200 C   0  0  0  0  0  0  0  0  0  0  0  0
  1  2  2  0
  2  3  1  0
  2  7  1  0
  3  4  1  0
  4  5  2  0
  5  6  1  0
  6  7  2  0
  7  8  1  0
  8  9  1  0
  9 10  2  0
  9 11  1  0
 11 12  1  0
 12 13  1  0
 12 22  1  0
 13 14  2  0
 13 15  1  0
 15 16  2  0
 16 17  1  0
 17 18  2  0
 17 22  1  0
 18 19  1  0
 19 20  2  0
 20 21  1  0
 21 22  2  0
M  END
