
     RDKit          3D

 22 24  0  0  0  0  0  0  0  0999 V2000
    6.3210    1.2470   -0.8270 C   0  0  0  0  0  0  0  0  0  0  0  0
    5.6940   -0.0380   -1.3450 C   0  0  0  0  0  0  0  0  0  0  0  0
    4.4710   -0.2630   -0.5610 N   0  0  0  0  0  0  0  0  0  0  0  0
    4.4030   -0.9570    0.5810 C   0  0  0  0  0  0  0  0  0  0  0  0
    3.0760   -0.9430    1.0170 C   0  0  0  0  0  0  0  0  0  0  0  0
    2.3250   -0.2260    0.1170 C   0  0  0  0  0  0  0  0  0  0  0  0
    0.8920    0.0550    0.1290 C   0  0  0  0  0  0  0  0  0  0  0  0
   -0.0550   -0.8390    0.3270 C   0  0  0  0  0  0  0  0  0  0  0  0
    0.3020   -2.1960    0.5450 N   0  0  0  0  0  0  0  0  0  0  0  0
   -0.7320   -3.1380    0.7830 C   0  0  0  0  0  0  0  0  0  0  0  0
   -0.4860   -4.1650    1.4770 O   0  0  0  0  0  0  0  0  0  0  0  0
   -2.0660   -2.8680    0.1990 C   0  0  0  0  0  0  0  0  0  0  0  0
   -2.3780   -1.5260    0.6020 O   0  0  0  0  0  0  0  0  0  0  0  0
   -1.4580   -0.4830    0.3560 C   0  0  0  0  0  0  0  0  0  0  0  0
   -1.9110    0.7190    0.1720 C   0  0  0  0  0  0  0  0  0  0  0  0
   -3.3610    0.9830    0.2210 C   0  0  0  0  0  0  0  0  0  0  0  0
   -4.0720    1.8570   -0.5680 C   0  0  0  0  0  0  0  0  0  0  0  0
   -5.4020    1.8080   -0.2040 C   0  0  0  0  0  0  0  0  0  0  0  0
   -6.5620    2.5600   -0.7550 C   0  0  0  0  0  0  0  0  0  0  0  0
   -5.4430    0.8810    0.8170 C   0  0  0  0  0  0  0  0  0  0  0  0
   -4.2390    0.4280    1.0310 O   0  0  0  0  0  0  0  0  0  0  0  0
    3.2460    0.1800   -0.8550 C   0  0  0  0  0  0  0  0  0  0  0  0
  1  2  1  0
  2  3  1  0
  3  4  1  0
  3 22  1  0
  4  5  2  0
  5  6  1  0
  6  7  1  0
  6 22  2  0
  7  8  2  3
  8  9  1  0
  8 14  1  0
  9 10  1  0
 10 11  2  0
 10 12  1  0
 12 13  1  0
 13 14  1  0
 14 15  2  3
 15 16  1  0
 16 17  2  0
 16 21  1  0
 17 18  1  0
 18 19  1  0
 18 20  2  0
 20 21  1  0
M  END
