
     RDKit          3D

 17 17  0  0  0  0  0  0  0  0999 V2000
    5.9500   -0.2210   -1.8740 C   0  0  0  0  0  0  0  0  0  0  0  0
    5.3860    0.1420   -0.6150 O   0  0  0  0  0  0  0  0  0  0  0  0
    4.0890   -0.1580   -0.2650 C   0  0  0  0  0  0  0  0  0  0  0  0
    3.3890   -0.7740   -1.0920 O   0  0  0  0  0  0  0  0  0  0  0  0
    3.5610    0.2320    1.0290 C   0  0  0  0  0  0  0  0  0  0  0  0
    2.1990   -0.1390    1.2720 N   0  0  0  0  0  0  0  0  0  0  0  0
    1.1050    0.2900    0.4840 C   0  0  0  0  0  0  0  0  0  0  0  0
    1.3440    1.0350   -0.4770 O   0  0  0  0  0  0  0  0  0  0  0  0
   -0.3100   -0.1190    0.7680 C   0  0  0  0  0  0  0  0  0  0  0  0
   -1.2190    0.4930   -0.2320 C   0  0  0  0  0  0  0  0  0  0  0  0
   -2.6530    0.1040   -0.0050 C   0  0  0  0  0  0  0  0  0  0  0  0
   -3.0050   -0.6940    0.9730 C   0  0  0  0  0  0  0  0  0  0  0  0
   -4.3460   -1.1740    1.3390 C   0  0  0  0  0  0  0  0  0  0  0  0
   -5.6440   -0.5540    0.2670 S   0  0  0  0  0  0  0  0  0  0  0  0
   -4.8850    0.4920   -0.9550 C   0  0  0  0  0  0  0  0  0  0  0  0
   -5.7070    1.1040   -1.9210 O   0  0  0  0  0  0  0  0  0  0  0  0
   -3.5850    0.6960   -0.9660 C   0  0  0  0  0  0  0  0  0  0  0  0
  1  2  1  0
  2  3  1  0
  3  4  2  0
  3  5  1  0
  5  6  1  0
  6  7  1  0
  7  8  2  0
  7  9  1  0
  9 10  1  0
 10 11  1  0
 11 12  2  0
 11 17  1  0
 12 13  1  0
 13 14  1  0
 14 15  1  0
 15 16  1  0
 15 17  2  0
M  END
