
     RDKit          3D

 22 24  0  0  0  0  0  0  0  0999 V2000
    5.7910   -0.1020    1.3730 C   0  0  0  0  0  0  0  0  0  0  0  0
    4.6370    0.6730    1.6410 O   0  0  0  0  0  0  0  0  0  0  0  0
    3.5250    0.6490    0.8020 C   0  0  0  0  0  0  0  0  0  0  0  0
    2.4020    1.4030    1.0630 C   0  0  0  0  0  0  0  0  0  0  0  0
    1.2880    1.3850    0.2310 C   0  0  0  0  0  0  0  0  0  0  0  0
    1.2650    0.6010   -0.9020 C   0  0  0  0  0  0  0  0  0  0  0  0
    0.1010    0.5390   -1.8310 C   0  0  0  0  0  0  0  0  0  0  0  0
   -0.8330   -0.5160   -1.4750 N   0  0  0  0  0  0  0  0  0  0  0  0
   -0.7850   -1.7880   -1.9100 C   0  0  0  0  0  0  0  0  0  0  0  0
   -1.8060   -2.5120   -1.3810 C   0  0  0  0  0  0  0  0  0  0  0  0
   -2.5220   -1.6620   -0.5850 C   0  0  0  0  0  0  0  0  0  0  0  0
   -3.6430   -1.8330    0.1900 C   0  0  0  0  0  0  0  0  0  0  0  0
   -4.1330   -0.7560    0.8890 C   0  0  0  0  0  0  0  0  0  0  0  0
   -3.5230    0.4830    0.8260 C   0  0  0  0  0  0  0  0  0  0  0  0
   -4.0270    1.6310    1.5580 C   0  0  0  0  0  0  0  0  0  0  0  0
   -3.4440    2.7330    1.4730 O   0  0  0  0  0  0  0  0  0  0  0  0
   -5.1790    1.4980    2.3680 N   0  0  0  0  0  0  0  0  0  0  0  0
   -5.3430    2.1060    3.4400 O   0  0  0  0  0  0  0  0  0  0  0  0
   -2.3990    0.6220    0.0400 C   0  0  0  0  0  0  0  0  0  0  0  0
   -1.8950   -0.4360   -0.6640 C   0  0  0  0  0  0  0  0  0  0  0  0
    2.3970   -0.1550   -1.1590 C   0  0  0  0  0  0  0  0  0  0  0  0
    3.5010   -0.1350   -0.3320 C   0  0  0  0  0  0  0  0  0  0  0  0
  1  2  1  0
  2  3  1  0
  3  4  2  0
  3 22  1  0
  4  5  1  0
  5  6  2  0
  6  7  1  0
  6 21  1  0
  7  8  1  0
  8  9  1  0
  8 20  1  0
  9 10  2  0
 10 11  1  0
 11 12  2  0
 11 20  1  0
 12 13  1  0
 13 14  2  0
 14 15  1  0
 14 19  1  0
 15 16  2  0
 15 17  1  0
 17 18  2  0
 19 20  2  0
 21 22  2  0
M  END
