
     RDKit          3D

 23 25  0  0  0  0  0  0  0  0999 V2000
   -4.6970   -1.9970   -0.4720 C   0  0  0  0  0  0  0  0  0  0  0  0
   -4.9010   -0.8250    0.0420 C   0  0  0  0  0  0  0  0  0  0  0  0
   -6.4380   -0.2210    0.7160 S   0  0  0  0  0  0  0  0  0  0  0  0
   -5.9480    1.5260    0.7120 C   0  0  0  0  0  0  0  0  0  0  0  0
   -4.4840    1.4180    0.5310 C   0  0  0  0  0  0  0  0  0  0  0  0
   -4.0020    0.2740    0.2080 C   0  0  0  0  0  0  0  0  0  0  0  0
   -2.5440    0.0810    0.0030 N   0  0  0  0  0  0  0  0  0  0  0  0
   -2.1280    0.4090   -1.3310 C   0  0  0  0  0  0  0  0  0  0  0  0
   -1.8030   -0.4350    1.0880 C   0  0  0  0  0  0  0  0  0  0  0  0
   -0.3660   -0.4270    1.0850 C   0  0  0  0  0  0  0  0  0  0  0  0
    0.1920   -1.0080    2.1410 O   0  0  0  0  0  0  0  0  0  0  0  0
    0.5810    0.0760    0.1880 N   0  0  0  0  0  0  0  0  0  0  0  0
    2.0000    0.0180    0.3060 C   0  0  0  0  0  0  0  0  0  0  0  0
    2.6810   -0.1600    1.4680 C   0  0  0  0  0  0  0  0  0  0  0  0
    4.0730   -0.2320    1.5390 C   0  0  0  0  0  0  0  0  0  0  0  0
    4.8090   -0.1180    0.3680 C   0  0  0  0  0  0  0  0  0  0  0  0
    6.1550   -0.1830    0.3850 N   0  0  0  0  0  0  0  0  0  0  0  0
    6.8470   -0.0750   -0.7520 C   0  0  0  0  0  0  0  0  0  0  0  0
    6.2220    0.1030   -1.9280 N   0  0  0  0  0  0  0  0  0  0  0  0
    4.8860    0.1770   -2.0080 C   0  0  0  0  0  0  0  0  0  0  0  0
    4.2780    0.3430   -3.0920 O   0  0  0  0  0  0  0  0  0  0  0  0
    4.1580    0.0630   -0.8280 C   0  0  0  0  0  0  0  0  0  0  0  0
    2.7930    0.1280   -0.8500 C   0  0  0  0  0  0  0  0  0  0  0  0
  1  2  2  0
  2  3  1  0
  2  6  1  0
  3  4  1  0
  4  5  1  0
  5  6  2  0
  6  7  1  0
  7  8  1  0
  7  9  1  0
  9 10  1  0
 10 11  2  0
 10 12  1  0
 12 13  1  0
 13 14  2  0
 13 23  1  0
 14 15  1  0
 15 16  2  0
 16 17  1  0
 16 22  1  0
 17 18  1  0
 18 19  2  0
 19 20  1  0
 20 21  2  0
 20 22  1  0
 22 23  2  0
M  END
