
     RDKit          3D

 23 25  0  0  0  0  0  0  0  0999 V2000
    3.7860    0.3330   -3.3880 C   0  0  0  0  0  0  0  0  0  0  0  0
    3.4910    0.2010   -1.9410 C   0  0  0  0  0  0  0  0  0  0  0  0
    4.4730    0.1070   -1.0030 N   0  0  0  0  0  0  0  0  0  0  0  0
    4.1530   -0.0110    0.2980 C   0  0  0  0  0  0  0  0  0  0  0  0
    5.2140   -0.1170    1.3590 C   0  0  1  0  0  0  0  0  0  0  0  0
    6.5470    0.1660    0.7170 C   0  0  0  0  0  0  0  0  0  0  0  0
    4.9470    0.6900    2.4430 O   0  0  0  0  0  0  0  0  0  0  0  0
    2.8560   -0.0330    0.6340 N   0  0  0  0  0  0  0  0  0  0  0  0
    1.8460    0.0560   -0.2520 C   0  0  0  0  0  0  0  0  0  0  0  0
    0.5460    0.0290    0.1450 N   0  0  0  0  0  0  0  0  0  0  0  0
   -0.4810    0.1160   -0.7160 C   0  0  0  0  0  0  0  0  0  0  0  0
   -1.8370    0.0870   -0.2990 N   0  0  0  0  0  0  0  0  0  0  0  0
   -2.1400   -0.0420    1.1150 C   0  0  0  0  0  0  0  0  0  0  0  0
   -3.6050   -0.0520    1.3410 C   0  0  0  0  0  0  0  0  0  0  0  0
   -4.3440   -0.1550    2.5100 C   0  0  0  0  0  0  0  0  0  0  0  0
   -5.6800   -0.1340    2.3870 C   0  0  0  0  0  0  0  0  0  0  0  0
   -6.2470   -0.0190    1.1860 C   0  0  0  0  0  0  0  0  0  0  0  0
   -7.6760    0.0300    0.7630 C   0  0  0  0  0  0  0  0  0  0  0  0
   -7.7310    0.1580   -0.6190 O   0  0  0  0  0  0  0  0  0  0  0  0
   -4.8860    0.0700    0.1140 S   0  0  0  0  0  0  0  0  0  0  0  0
   -0.1860    0.2390   -2.0670 C   0  0  0  0  0  0  0  0  0  0  0  0
    1.1340    0.2690   -2.4920 C   0  0  0  0  0  0  0  0  0  0  0  0
    2.1630    0.1760   -1.5690 C   0  0  0  0  0  0  0  0  0  0  0  0
  1  2  1  0
  2  3  2  0
  2 23  1  0
  3  4  1  0
  4  5  1  0
  4  8  2  0
  5  6  1  6
  5  7  1  0
  8  9  1  0
  9 10  2  0
  9 23  1  0
 10 11  1  0
 11 12  1  0
 11 21  2  0
 12 13  1  0
 13 14  1  0
 14 15  2  0
 14 20  1  0
 15 16  1  0
 16 17  2  0
 17 18  1  0
 17 20  1  0
 18 19  1  0
 21 22  1  0
 22 23  2  0
M  END
