
     RDKit          3D

 18 18  0  0  0  0  0  0  0  0999 V2000
   -3.6390   -0.4900   -0.0950 C   0  0  0  0  0  0  0  0  0  0  0  0
   -2.2800   -0.8650   -0.6410 C   0  0  0  0  0  0  0  0  0  0  0  0
   -1.3450    0.0150   -0.3490 C   0  0  0  0  0  0  0  0  0  0  0  0
   -1.6400    1.1420    0.3890 O   0  0  0  0  0  0  0  0  0  0  0  0
   -0.8530    2.1300    0.9940 C   0  0  0  0  0  0  0  0  0  0  0  0
    0.4660    1.7080    1.4940 C   0  0  0  0  0  0  0  0  0  0  0  0
    0.7440    2.1500    2.6400 O   0  0  0  0  0  0  0  0  0  0  0  0
    1.4360    0.8900    0.8640 N   0  0  0  0  0  0  0  0  0  0  0  0
    1.2470   -0.1830   -0.0590 C   0  0  0  0  0  0  0  0  0  0  0  0
    2.1620   -1.0840   -0.2380 C   0  0  0  0  0  0  0  0  0  0  0  0
    3.4350   -1.0250    0.5080 C   0  0  1  0  0  0  0  0  0  0  0  0
    4.2230    0.0260    0.1310 F   0  0  0  0  0  0  0  0  0  0  0  0
    3.2120   -0.9240    1.8800 F   0  0  0  0  0  0  0  0  0  0  0  0
    4.4790   -2.6490    0.2540 Br  0  0  0  0  0  0  0  0  0  0  0  0
   -0.0100   -0.3030   -0.8620 C   0  0  0  0  0  0  0  0  0  0  0  0
    0.0960   -0.6800   -2.0970 C   0  0  0  0  0  0  0  0  0  0  0  0
    1.2760   -0.9940   -2.6580 F   0  0  0  0  0  0  0  0  0  0  0  0
   -1.3950   -0.7640   -3.2520 Br  0  0  0  0  0  0  0  0  0  0  0  0
  1  2  1  0
  2  3  2  3
  3  4  1  0
  3 15  1  0
  4  5  1  0
  5  6  1  0
  6  7  2  0
  6  8  1  0
  8  9  1  0
  9 10  2  3
  9 15  1  0
 10 11  1  0
 11 12  1  6
 11 13  1  0
 11 14  1  0
 15 16  2  3
 16 17  1  0
 16 18  1  0
M  END
