
     RDKit          3D

 18 18  0  0  0  0  0  0  0  0999 V2000
   -2.2480   -0.9790    1.6820 C   0  0  0  0  0  0  0  0  0  0  0  0
   -2.6410   -0.2850    0.4490 C   0  0  0  0  0  0  0  0  0  0  0  0
   -1.7420    0.2290   -0.3600 C   0  0  0  0  0  0  0  0  0  0  0  0
   -0.3380    0.1310   -0.0690 C   0  0  0  0  0  0  0  0  0  0  0  0
    0.5120    0.6630   -0.9130 C   0  0  0  0  0  0  0  0  0  0  0  0
    1.9910    0.7100   -0.8650 C   0  0  0  0  0  0  0  0  0  0  0  0
    2.5540    1.4500   -1.7820 C   0  0  0  0  0  0  0  0  0  0  0  0
    1.7750    2.0960   -2.6760 F   0  0  0  0  0  0  0  0  0  0  0  0
    4.4530    1.5780   -1.8090 Br  0  0  0  0  0  0  0  0  0  0  0  0
    2.8490    0.0610    0.0370 N   0  0  0  0  0  0  0  0  0  0  0  0
    2.4580   -0.8300    1.0730 C   0  0  0  0  0  0  0  0  0  0  0  0
    3.4090   -1.3290    1.7120 O   0  0  0  0  0  0  0  0  0  0  0  0
    1.1220   -1.2720    1.5300 C   0  0  0  0  0  0  0  0  0  0  0  0
    0.0630   -0.5220    1.0910 O   0  0  0  0  0  0  0  0  0  0  0  0
   -2.2010    0.9150   -1.5880 C   0  0  2  0  0  0  0  0  0  0  0  0
   -1.7200    0.3080   -2.7420 F   0  0  0  0  0  0  0  0  0  0  0  0
   -1.8220    2.2390   -1.4940 F   0  0  0  0  0  0  0  0  0  0  0  0
   -4.1610    0.8530   -1.6000 Br  0  0  0  0  0  0  0  0  0  0  0  0
  1  2  1  0
  2  3  2  3
  3  4  1  0
  3 15  1  0
  4  5  2  0
  4 14  1  0
  5  6  1  0
  6  7  2  3
  6 10  1  0
  7  8  1  0
  7  9  1  0
 10 11  1  0
 11 12  2  0
 11 13  1  0
 13 14  1  0
 15 16  1  6
 15 17  1  0
 15 18  1  0
M  END
