
     RDKit          3D

 18 18  0  0  0  0  0  0  0  0999 V2000
   -2.2550    1.7860    0.4700 C   0  0  0  0  0  0  0  0  0  0  0  0
   -0.9280    1.3140   -0.0700 C   0  0  0  0  0  0  0  0  0  0  0  0
   -0.4920    0.1070    0.0910 C   0  0  0  0  0  0  0  0  0  0  0  0
   -1.3510   -0.8540    0.8290 C   0  0  0  0  0  0  0  0  0  0  0  0
   -2.6020   -1.0600    0.5840 C   0  0  0  0  0  0  0  0  0  0  0  0
   -3.2590   -1.9760    1.3640 F   0  0  0  0  0  0  0  0  0  0  0  0
   -3.3230   -0.5310   -0.4110 F   0  0  0  0  0  0  0  0  0  0  0  0
   -0.6480   -1.7780    1.8160 C   0  0  0  0  0  0  0  0  0  0  0  0
    0.2420   -2.4750    0.9150 O   0  0  0  0  0  0  0  0  0  0  0  0
    1.1880   -1.7220    0.1930 C   0  0  0  0  0  0  0  0  0  0  0  0
    2.2950   -2.2290   -0.0490 O   0  0  0  0  0  0  0  0  0  0  0  0
    0.8590   -0.3560   -0.2620 C   0  0  0  0  0  0  0  0  0  0  0  0
    1.6950    0.3670   -0.9520 C   0  0  0  0  0  0  0  0  0  0  0  0
    1.4270    1.6880   -1.4590 N   0  0  0  0  0  0  0  0  0  0  0  0
    3.0910   -0.0600   -1.3260 C   0  0  1  0  0  0  0  0  0  0  0  0
    3.5980    1.0090   -2.1260 F   0  0  0  0  0  0  0  0  0  0  0  0
    4.2480   -0.3530    0.1560 Br  0  0  0  0  0  0  0  0  0  0  0  0
    3.0190   -1.5440   -2.5590 Br  0  0  0  0  0  0  0  0  0  0  0  0
  1  2  1  0
  2  3  2  3
  3  4  1  0
  3 12  1  0
  4  5  2  3
  4  8  1  0
  5  6  1  0
  5  7  1  0
  8  9  1  0
  9 10  1  0
 10 11  2  0
 10 12  1  0
 12 13  2  3
 13 14  1  0
 13 15  1  0
 15 16  1  6
 15 17  1  0
 15 18  1  0
M  END
