
     RDKit          3D

 18 19  0  0  0  0  0  0  0  0999 V2000
    1.9720   -0.3330   -1.4390 O   0  0  0  0  0  0  0  0  0  0  0  0
    2.3740   -0.2830   -0.2360 C   0  0  0  0  0  0  0  0  0  0  0  0
    1.3900   -0.3640    0.7680 N   0  0  0  0  0  0  0  0  0  0  0  0
    0.0190   -0.4960    0.4160 C   0  0  0  0  0  0  0  0  0  0  0  0
   -0.6070   -1.7090    0.2400 C   0  0  0  0  0  0  0  0  0  0  0  0
    0.4350   -3.2860    0.4860 Br  0  0  0  0  0  0  0  0  0  0  0  0
   -1.9310   -1.8400   -0.1000 C   0  0  0  0  0  0  0  0  0  0  0  0
   -2.6830   -0.7010   -0.2780 C   0  0  0  0  0  0  0  0  0  0  0  0
   -4.5240   -0.8140   -0.7500 Br  0  0  0  0  0  0  0  0  0  0  0  0
   -2.0810    0.5280   -0.1080 C   0  0  0  0  0  0  0  0  0  0  0  0
   -2.5490    1.8310   -0.2100 C   0  0  0  0  0  0  0  0  0  0  0  0
   -1.4800    2.6610    0.0740 C   0  0  0  0  0  0  0  0  0  0  0  0
   -0.4480    1.8980    0.3280 O   0  0  0  0  0  0  0  0  0  0  0  0
   -0.7530    0.6340    0.2330 C   0  0  0  0  0  0  0  0  0  0  0  0
    3.8320   -0.1430    0.0600 C   0  0  2  0  0  0  0  0  0  0  0  0
    4.5200   -0.0920   -1.1370 F   0  0  0  0  0  0  0  0  0  0  0  0
    4.2830   -1.1890    0.8300 F   0  0  0  0  0  0  0  0  0  0  0  0
    4.0930    1.0460    0.7150 F   0  0  0  0  0  0  0  0  0  0  0  0
  1  2  2  0
  2  3  1  0
  2 15  1  0
  3  4  1  0
  4  5  2  0
  4 14  1  0
  5  6  1  0
  5  7  1  0
  7  8  2  0
  8  9  1  0
  8 10  1  0
 10 11  1  0
 10 14  2  0
 11 12  2  0
 12 13  1  0
 13 14  1  0
 15 16  1  6
 15 17  1  0
 15 18  1  0
M  END
