
     RDKit          3D

 17 18  0  0  0  0  0  0  0  0999 V2000
    3.8890    1.0780    0.0840 O   0  0  0  0  0  0  0  0  0  0  0  0
    2.6600    0.3890    0.1000 C   0  0  0  0  0  0  0  0  0  0  0  0
    2.5910   -0.9790    0.0410 C   0  0  0  0  0  0  0  0  0  0  0  0
    4.2200   -1.9740   -0.0640 Br  0  0  0  0  0  0  0  0  0  0  0  0
    1.3740   -1.6160    0.0590 C   0  0  0  0  0  0  0  0  0  0  0  0
    0.2160   -0.8630    0.1360 C   0  0  0  0  0  0  0  0  0  0  0  0
   -1.0260   -1.4940    0.1550 C   0  0  0  0  0  0  0  0  0  0  0  0
   -1.0300   -2.8840    0.0930 O   0  0  0  0  0  0  0  0  0  0  0  0
   -2.1270   -0.7470    0.2300 N   0  0  0  0  0  0  0  0  0  0  0  0
   -2.1330    0.5890    0.2890 C   0  0  0  0  0  0  0  0  0  0  0  0
   -3.4290    1.3550    0.3720 C   0  0  2  0  0  0  0  0  0  0  0  0
   -4.1270    1.0150    1.5180 F   0  0  0  0  0  0  0  0  0  0  0  0
   -4.1970    1.0460   -0.7450 F   0  0  0  0  0  0  0  0  0  0  0  0
   -0.9150    1.2360    0.2720 C   0  0  0  0  0  0  0  0  0  0  0  0
    0.2680    0.5150    0.1950 C   0  0  0  0  0  0  0  0  0  0  0  0
    1.4950    1.1330    0.1760 C   0  0  0  0  0  0  0  0  0  0  0  0
    1.6060    3.0520    0.2570 Br  0  0  0  0  0  0  0  0  0  0  0  0
  1  2  1  0
  2  3  2  0
  2 16  1  0
  3  4  1  0
  3  5  1  0
  5  6  2  0
  6  7  1  0
  6 15  1  0
  7  8  1  0
  7  9  2  0
  9 10  1  0
 10 11  1  0
 10 14  2  0
 11 12  1  1
 11 13  1  0
 14 15  1  0
 15 16  2  0
 16 17  1  0
M  END
