
     RDKit          3D

 31 33  0  0  0  0  0  0  0  0999 V2000
    6.9650   -1.6440   -1.6710 C   0  0  0  0  0  0  0  0  0  0  0  0
    5.7750   -0.9390   -1.9440 O   0  0  0  0  0  0  0  0  0  0  0  0
    5.1000   -0.9670   -3.1390 C   0  0  0  0  0  0  0  0  0  0  0  0
    5.5770   -1.6760   -4.0640 O   0  0  0  0  0  0  0  0  0  0  0  0
    3.8500   -0.2230   -3.4190 C   0  0  0  0  0  0  0  0  0  0  0  0
    3.4760    0.5020   -2.2830 O   0  0  0  0  0  0  0  0  0  0  0  0
    4.2900    1.4450   -1.7550 C   0  0  0  0  0  0  0  0  0  0  0  0
    5.4170    1.6410   -2.3450 O   0  0  0  0  0  0  0  0  0  0  0  0
    4.0030    2.2320   -0.6100 C   0  0  0  0  0  0  0  0  0  0  0  0
    2.9550    2.2290    0.1520 C   0  0  0  0  0  0  0  0  0  0  0  0
    1.7540    1.4220    0.0690 C   0  0  0  0  0  0  0  0  0  0  0  0
    1.5780    0.5690   -0.8180 O   0  0  0  0  0  0  0  0  0  0  0  0
    0.7080    1.5980    1.0420 N   0  0  0  0  0  0  0  0  0  0  0  0
   -0.5110    0.8950    1.0810 C   0  0  0  0  0  0  0  0  0  0  0  0
   -0.9500    0.1120    0.0360 C   0  0  0  0  0  0  0  0  0  0  0  0
   -2.1840   -0.5460    0.0390 C   0  0  0  0  0  0  0  0  0  0  0  0
   -2.9670   -0.3870    1.1430 C   0  0  0  0  0  0  0  0  0  0  0  0
   -2.5260    0.4120    2.2180 C   0  0  0  0  0  0  0  0  0  0  0  0
   -1.3250    1.0560    2.2220 C   0  0  0  0  0  0  0  0  0  0  0  0
   -0.8490    1.8200    3.3170 N   0  0  0  0  0  0  0  0  0  0  0  0
   -1.6220    2.1880    4.4440 C   0  0  0  0  0  0  0  0  0  0  0  0
   -1.0260    3.0000    5.5680 C   0  0  0  0  0  0  0  0  0  0  0  0
   -2.8140    1.8810    4.5880 O   0  0  0  0  0  0  0  0  0  0  0  0
   -4.2930   -1.0270    1.2730 C   0  0  0  0  0  0  0  0  0  0  0  0
   -4.6850   -1.8510    0.1030 C   0  0  0  0  0  0  0  0  0  0  0  0
   -5.8090   -2.5360   -0.0550 C   0  0  0  0  0  0  0  0  0  0  0  0
   -6.8380   -2.6140    0.8460 F   0  0  0  0  0  0  0  0  0  0  0  0
   -5.7690   -3.1980   -1.3560 C   0  0  0  0  0  0  0  0  0  0  0  0
   -4.4730   -2.8060   -1.9330 C   0  0  0  0  0  0  0  0  0  0  0  0
   -3.8510   -2.0220   -1.0730 C   0  0  0  0  0  0  0  0  0  0  0  0
   -2.5930   -1.3440   -1.0650 N   0  0  0  0  0  0  0  0  0  0  0  0
  1  2  1  0
  2  3  1  0
  3  4  2  0
  3  5  1  0
  5  6  1  0
  6  7  1  0
  7  8  2  0
  7  9  1  0
  9 10  2  3
 10 11  1  0
 11 12  2  0
 11 13  1  0
 13 14  1  0
 14 15  2  0
 14 19  1  0
 15 16  1  0
 16 17  2  0
 16 31  1  0
 17 18  1  0
 17 24  1  0
 18 19  2  0
 19 20  1  0
 20 21  1  0
 21 22  1  0
 21 23  2  0
 24 25  1  0
 25 26  2  0
 25 30  1  0
 26 27  1  0
 26 28  1  0
 28 29  1  0
 29 30  2  0
 30 31  1  0
M  END
