
     RDKit          3D

 30 32  0  0  0  0  0  0  0  0999 V2000
   -1.9070   -3.6680    2.4910 C   0  0  0  0  0  0  0  0  0  0  0  0
   -2.9930   -3.2180    1.6690 O   0  0  0  0  0  0  0  0  0  0  0  0
   -2.8180   -1.8580    1.1480 C   0  0  0  0  0  0  0  0  0  0  0  0
   -1.7460   -1.3700    1.5360 O   0  0  0  0  0  0  0  0  0  0  0  0
   -3.8490   -1.3360    0.3240 C   0  0  0  0  0  0  0  0  0  0  0  0
   -4.9500   -2.3470    0.2250 O   0  0  0  0  0  0  0  0  0  0  0  0
   -4.1240   -0.2780   -0.3610 C   0  0  0  0  0  0  0  0  0  0  0  0
   -5.4600   -0.2500   -1.0790 C   0  0  0  0  0  0  0  0  0  0  0  0
   -6.1730   -1.2680   -1.0420 O   0  0  0  0  0  0  0  0  0  0  0  0
   -5.8490    0.9520   -1.7760 C   0  0  0  0  0  0  0  0  0  0  0  0
   -5.1250    2.0280   -1.8310 C   0  0  0  0  0  0  0  0  0  0  0  0
   -5.5260    3.1700   -2.5060 O   0  0  0  0  0  0  0  0  0  0  0  0
   -4.8860    4.4160   -2.3590 C   0  0  0  0  0  0  0  0  0  0  0  0
   -3.8570    2.0350   -1.1710 C   0  0  0  0  0  0  0  0  0  0  0  0
   -3.3930    0.9530   -0.4890 C   0  0  0  0  0  0  0  0  0  0  0  0
   -2.0280    1.1190    0.0830 C   0  0  0  0  0  0  0  0  0  0  0  0
   -1.1200    0.2330   -0.7390 C   0  0  0  0  0  0  0  0  0  0  0  0
    0.2990    0.2760   -0.2630 C   0  0  0  0  0  0  0  0  0  0  0  0
    0.6440    0.9800    0.7150 O   0  0  0  0  0  0  0  0  0  0  0  0
    1.3220   -0.4770   -0.8960 N   0  0  0  0  0  0  0  0  0  0  0  0
    2.6570   -0.4140   -0.4190 C   0  0  0  0  0  0  0  0  0  0  0  0
    3.5980   -1.1430   -1.0450 N   0  0  0  0  0  0  0  0  0  0  0  0
    4.8700   -1.1610   -0.6880 C   0  0  0  0  0  0  0  0  0  0  0  0
    5.8550   -1.9890   -1.4260 C   0  0  0  0  0  0  0  0  0  0  0  0
    5.2810   -0.4020    0.3800 C   0  0  0  0  0  0  0  0  0  0  0  0
    4.3280    0.3470    1.0290 C   0  0  0  0  0  0  0  0  0  0  0  0
    3.0350    0.3290    0.6200 N   0  0  0  0  0  0  0  0  0  0  0  0
    5.0080    1.0850    2.1490 C   0  0  0  0  0  0  0  0  0  0  0  0
    6.3350    0.3950    2.3280 C   0  0  0  0  0  0  0  0  0  0  0  0
    6.6290   -0.2420    0.9850 C   0  0  0  0  0  0  0  0  0  0  0  0
  1  2  1  0
  2  3  1  0
  3  4  2  0
  3  5  1  0
  5  6  1  0
  5  7  2  3
  7  8  1  0
  7 15  1  0
  8  9  2  0
  8 10  1  0
 10 11  2  0
 11 12  1  0
 11 14  1  0
 12 13  1  0
 14 15  2  0
 15 16  1  0
 16 17  1  0
 17 18  1  0
 18 19  2  0
 18 20  1  0
 20 21  1  0
 21 22  2  0
 21 27  1  0
 22 23  1  0
 23 24  1  0
 23 25  2  0
 25 26  1  0
 25 30  1  0
 26 27  2  0
 26 28  1  0
 28 29  1  0
 29 30  1  0
M  END
