
     RDKit          3D

 31 33  0  0  0  0  0  0  0  0999 V2000
   -6.3000   -1.8390    0.0160 C   0  0  0  0  0  0  0  0  0  0  0  0
   -6.7920   -0.6780    0.4620 C   0  0  0  0  0  0  0  0  0  0  0  0
   -6.3160    0.5940   -0.0310 C   0  0  0  0  0  0  0  0  0  0  0  0
   -6.7570    1.7350    0.3660 C   0  0  0  0  0  0  0  0  0  0  0  0
   -7.7840    2.0830    1.3510 C   0  0  0  0  0  0  0  0  0  0  0  0
   -8.4030    1.0620    1.9770 F   0  0  0  0  0  0  0  0  0  0  0  0
   -5.2970    0.4970   -1.0160 O   0  0  0  0  0  0  0  0  0  0  0  0
   -3.9330    0.4720   -0.6270 C   0  0  0  0  0  0  0  0  0  0  0  0
   -3.7760    0.5420    0.6080 O   0  0  0  0  0  0  0  0  0  0  0  0
   -2.8950    0.3740   -1.6210 C   0  0  0  0  0  0  0  0  0  0  0  0
   -3.2690    0.3030   -2.9750 C   0  0  0  0  0  0  0  0  0  0  0  0
   -2.3190    0.2090   -3.9670 C   0  0  0  0  0  0  0  0  0  0  0  0
   -0.9750    0.1840   -3.6070 C   0  0  0  0  0  0  0  0  0  0  0  0
   -0.6250    0.2510   -2.3210 N   0  0  0  0  0  0  0  0  0  0  0  0
   -1.5760    0.3460   -1.3270 C   0  0  0  0  0  0  0  0  0  0  0  0
   -1.1160    0.4120    0.0100 N   0  0  0  0  0  0  0  0  0  0  0  0
    0.3160    0.3790    0.2600 C   0  0  0  0  0  0  0  0  0  0  0  0
    1.0870    0.2930   -0.7220 O   0  0  0  0  0  0  0  0  0  0  0  0
    0.8530    0.4440    1.6480 C   0  0  0  0  0  0  0  0  0  0  0  0
    2.2430    0.3980    1.5970 O   0  0  0  0  0  0  0  0  0  0  0  0
    2.9660   -0.6490    1.0570 C   0  0  0  0  0  0  0  0  0  0  0  0
    2.3740   -1.6340    0.5740 O   0  0  0  0  0  0  0  0  0  0  0  0
    4.4180   -0.6130    1.0460 C   0  0  0  0  0  0  0  0  0  0  0  0
    5.2510    0.3900    1.5330 C   0  0  0  0  0  0  0  0  0  0  0  0
    6.5530    0.0120    1.3160 C   0  0  0  0  0  0  0  0  0  0  0  0
    6.5250   -1.2110    0.7040 C   0  0  0  0  0  0  0  0  0  0  0  0
    5.2320   -1.5520    0.5580 N   0  0  0  0  0  0  0  0  0  0  0  0
    7.7650   -1.8480    0.3580 C   0  0  0  0  0  0  0  0  0  0  0  0
    8.9220   -1.2810    0.6200 C   0  0  0  0  0  0  0  0  0  0  0  0
    9.0120    0.0250    1.2730 C   0  0  0  0  0  0  0  0  0  0  0  0
    7.7750    0.5850    1.5790 O   0  0  0  0  0  0  0  0  0  0  0  0
  1  2  2  0
  2  3  1  0
  3  4  2  3
  3  7  1  0
  4  5  1  0
  5  6  1  0
  7  8  1  0
  8  9  2  0
  8 10  1  0
 10 11  2  0
 10 15  1  0
 11 12  1  0
 12 13  2  0
 13 14  1  0
 14 15  2  0
 15 16  1  0
 16 17  1  0
 17 18  2  0
 17 19  1  0
 19 20  1  0
 20 21  1  0
 21 22  2  0
 21 23  1  0
 23 24  2  0
 23 27  1  0
 24 25  1  0
 25 26  2  0
 25 31  1  0
 26 27  1  0
 26 28  1  0
 28 29  2  0
 29 30  1  0
 30 31  1  0
M  END
