
     RDKit          3D

 29 32  0  0  0  0  0  0  0  0999 V2000
   -7.3470   -1.5560    0.7590 C   0  0  0  0  0  0  0  0  0  0  0  0
   -6.0940   -0.8710    0.4940 N   0  0  0  0  0  0  0  0  0  0  0  0
   -4.8670   -1.3550    0.7420 C   0  0  0  0  0  0  0  0  0  0  0  0
   -3.9770   -0.3820    0.4240 C   0  0  0  0  0  0  0  0  0  0  0  0
   -2.4740   -0.2860    0.5870 C   0  0  0  0  0  0  0  0  0  0  0  0
   -1.8670   -1.1970   -0.3580 N   0  0  0  0  0  0  0  0  0  0  0  0
   -0.7620   -1.9770   -0.0710 C   0  0  0  0  0  0  0  0  0  0  0  0
    0.5820   -1.2880   -0.1280 C   0  0  2  0  0  0  0  0  0  0  0  0
    0.5630   -0.1680    0.9130 C   0  0  0  0  0  0  0  0  0  0  0  0
    1.9800    0.2420    1.2000 C   0  0  0  0  0  0  0  0  0  0  0  0
    2.6490    0.3040   -0.1170 N   0  0  0  0  0  0  0  0  0  0  0  0
    4.0850    0.2090   -0.1020 C   0  0  0  0  0  0  0  0  0  0  0  0
    4.7150   -0.4840    0.8990 N   0  0  0  0  0  0  0  0  0  0  0  0
    6.0300   -0.5580    1.0420 C   0  0  0  0  0  0  0  0  0  0  0  0
    6.8550    0.1020    0.1190 C   0  0  0  0  0  0  0  0  0  0  0  0
    8.3180    0.0540    0.3400 C   0  0  0  0  0  0  0  0  0  0  0  0
    8.8350   -0.4830    1.3500 O   0  0  0  0  0  0  0  0  0  0  0  0
    9.2000    0.6480   -0.6220 N   0  0  0  0  0  0  0  0  0  0  0  0
   10.5570    0.6120   -0.3760 O   0  0  0  0  0  0  0  0  0  0  0  0
    6.2070    0.7820   -0.8730 C   0  0  0  0  0  0  0  0  0  0  0  0
    4.8660    0.8500   -0.9960 N   0  0  0  0  0  0  0  0  0  0  0  0
    1.8740    0.4670   -1.2740 C   0  0  0  0  0  0  0  0  0  0  0  0
    0.9430   -0.7330   -1.4730 C   0  0  0  0  0  0  0  0  0  0  0  0
   -4.6860    0.7130   -0.0250 C   0  0  0  0  0  0  0  0  0  0  0  0
   -4.2790    1.9210   -0.5420 C   0  0  0  0  0  0  0  0  0  0  0  0
   -5.1990    2.8630   -1.0300 C   0  0  0  0  0  0  0  0  0  0  0  0
   -6.5250    2.5440   -0.9860 C   0  0  0  0  0  0  0  0  0  0  0  0
   -6.9330    1.3040   -0.4590 C   0  0  0  0  0  0  0  0  0  0  0  0
   -6.0090    0.4060    0.0170 C   0  0  0  0  0  0  0  0  0  0  0  0
  1  2  1  0
  2  3  1  0
  2 29  1  0
  3  4  2  0
  4  5  1  0
  4 24  1  0
  5  6  1  0
  6  7  1  0
  8  7  1  6
  8  9  1  0
  8 23  1  0
  9 10  1  0
 10 11  1  0
 11 12  1  0
 11 22  1  0
 12 13  2  0
 12 21  1  0
 13 14  1  0
 14 15  2  0
 15 16  1  0
 15 20  1  0
 16 17  2  0
 16 18  1  0
 18 19  1  0
 20 21  2  0
 22 23  1  0
 24 25  2  0
 24 29  1  0
 25 26  1  0
 26 27  2  0
 27 28  1  0
 28 29  2  0
M  CHG  1   6   1
M  END
