
     RDKit          3D

 29 32  0  0  0  0  0  0  0  0999 V2000
    0.1310   -0.2690   -2.4960 O   0  0  0  0  0  0  0  0  0  0  0  0
    0.0760   -0.6350   -1.2640 C   0  0  0  0  0  0  0  0  0  0  0  0
   -1.1500   -1.1430   -0.8180 N   0  0  0  0  0  0  0  0  0  0  0  0
   -2.2750   -0.6650   -0.0910 C   0  0  0  0  0  0  0  0  0  0  0  0
   -2.4890   -1.2610    1.2610 C   0  0  0  0  0  0  0  0  0  0  0  0
   -3.5260   -0.8100    2.0330 C   0  0  0  0  0  0  0  0  0  0  0  0
   -3.8060   -1.3630    3.3090 C   0  0  0  0  0  0  0  0  0  0  0  0
   -2.9750   -2.3740    3.7190 C   0  0  0  0  0  0  0  0  0  0  0  0
   -1.9560   -2.8030    2.9410 N   0  0  0  0  0  0  0  0  0  0  0  0
   -1.6950   -2.2820    1.7440 C   0  0  0  0  0  0  0  0  0  0  0  0
   -3.1740    0.2290   -0.5420 C   0  0  0  0  0  0  0  0  0  0  0  0
   -3.2270    0.8990   -1.8170 C   0  0  0  0  0  0  0  0  0  0  0  0
   -2.5820    1.9320   -2.2920 C   0  0  0  0  0  0  0  0  0  0  0  0
   -1.5520    2.7450   -1.5850 C   0  0  0  0  0  0  0  0  0  0  0  0
   -2.2220    3.4860   -0.1530 S   0  0  0  0  0  0  0  0  0  0  0  0
   -3.3590    4.4190   -0.3620 O   0  0  0  0  0  0  0  0  0  0  0  0
   -2.4170    2.5270    1.2660 C   0  0  0  0  0  0  0  0  0  0  0  0
   -1.4580    1.8730    1.9150 C   0  0  0  0  0  0  0  0  0  0  0  0
   -0.0600    1.8560    1.5300 C   0  0  0  0  0  0  0  0  0  0  0  0
    0.6140    0.5720    1.6090 N   0  0  0  0  0  0  0  0  0  0  0  0
    1.5770    0.0400    0.6830 C   0  0  0  0  0  0  0  0  0  0  0  0
    2.9320   -0.0380    0.9260 N   0  0  0  0  0  0  0  0  0  0  0  0
    3.5930   -0.5290   -0.1190 C   0  0  0  0  0  0  0  0  0  0  0  0
    2.6720   -0.7870   -1.0720 C   0  0  0  0  0  0  0  0  0  0  0  0
    1.3850   -0.4330   -0.5730 C   0  0  0  0  0  0  0  0  0  0  0  0
    3.0530   -1.3510   -2.4280 C   0  0  0  0  0  0  0  0  0  0  0  0
    4.4770   -1.7700   -2.4440 C   0  0  0  0  0  0  0  0  0  0  0  0
    5.3160   -0.6650   -1.8090 C   0  0  0  0  0  0  0  0  0  0  0  0
    5.0680   -0.7930   -0.3230 C   0  0  0  0  0  0  0  0  0  0  0  0
  1  2  2  0
  2  3  1  0
  2 25  1  0
  3  4  1  0
  4  5  1  0
  4 11  2  0
  5  6  2  0
  5 10  1  0
  6  7  1  0
  7  8  2  0
  8  9  1  0
  9 10  2  0
 11 12  1  0
 12 13  2  0
 13 14  1  0
 15 14  1  6
 15 16  2  0
 15 17  1  0
 17 18  2  0
 18 19  1  0
 19 20  1  0
 20 21  1  0
 21 22  1  0
 21 25  2  0
 22 23  1  0
 23 24  2  0
 23 29  1  0
 24 25  1  0
 24 26  1  0
 26 27  1  0
 27 28  1  0
 28 29  1  0
M  END
