
     RDKit          3D

 31 34  0  0  0  0  0  0  0  0999 V2000
    6.7380   -0.2900   -0.6810 C   0  0  0  0  0  0  0  0  0  0  0  0
    5.5980    0.6440   -0.5940 C   0  0  0  0  0  0  0  0  0  0  0  0
    4.3090    0.2590   -0.3080 C   0  0  0  0  0  0  0  0  0  0  0  0
    3.4860    1.3930   -0.3080 C   0  0  0  0  0  0  0  0  0  0  0  0
    2.0960    1.4170   -0.0630 O   0  0  0  0  0  0  0  0  0  0  0  0
    1.5220    0.1660    0.2070 C   0  0  0  0  0  0  0  0  0  0  0  0
    0.0770    0.1650    0.4280 C   0  0  0  0  0  0  0  0  0  0  0  0
   -0.8160    1.1020    0.6940 N   0  0  0  0  0  0  0  0  0  0  0  0
   -2.0110    0.5520    0.7580 N   0  0  0  0  0  0  0  0  0  0  0  0
   -1.9300   -0.7600    0.5350 C   0  0  0  0  0  0  0  0  0  0  0  0
   -0.6320   -1.0060    0.3300 N   0  0  0  0  0  0  0  0  0  0  0  0
    0.0300   -2.2890    0.0540 C   0  0  0  0  0  0  0  0  0  0  0  0
   -0.6940   -3.4080    0.7470 C   0  0  2  0  0  0  0  0  0  0  0  0
    0.1680   -4.5640    0.7990 N   0  0  0  0  0  0  0  0  0  0  0  0
   -2.0160   -3.6820    0.0510 C   0  0  0  0  0  0  0  0  0  0  0  0
   -3.1460   -3.0200    0.7640 C   0  0  0  0  0  0  0  0  0  0  0  0
   -3.0780   -1.5630    0.5250 N   0  0  0  0  0  0  0  0  0  0  0  0
   -4.3460   -0.9550    0.2080 C   0  0  0  0  0  0  0  0  0  0  0  0
   -4.4650    0.4840    0.2460 C   0  0  0  0  0  0  0  0  0  0  0  0
   -4.7380    1.4310   -0.6830 C   0  0  0  0  0  0  0  0  0  0  0  0
   -4.6190    2.4040    0.3630 C   0  0  0  0  0  0  0  0  0  0  0  0
   -4.7180    3.8540    0.4650 C   0  0  0  0  0  0  0  0  0  0  0  0
   -4.9760    4.5630   -0.6070 C   0  0  0  0  0  0  0  0  0  0  0  0
   -5.2200    3.8810   -2.1900 Cl  0  0  0  0  0  0  0  0  0  0  0  0
   -4.3610    1.4830    1.2460 N   0  0  0  0  0  0  0  0  0  0  0  0
    4.3090    2.4470   -0.5940 C   0  0  0  0  0  0  0  0  0  0  0  0
    3.9390    3.8530   -0.6930 C   0  0  0  0  0  0  0  0  0  0  0  0
    3.1540    4.4730    0.1690 C   0  0  0  0  0  0  0  0  0  0  0  0
    2.8030    6.1730   -0.0980 Cl  0  0  0  0  0  0  0  0  0  0  0  0
    2.4920    3.6380    1.5510 Cl  0  0  0  0  0  0  0  0  0  0  0  0
    5.5890    1.9600   -0.7640 N   0  0  0  0  0  0  0  0  0  0  0  0
  1  2  1  0
  2  3  2  0
  2 31  1  0
  3  4  1  0
  4  5  1  0
  4 26  2  0
  5  6  1  0
  6  7  1  0
  7  8  2  0
  7 11  1  0
  8  9  1  0
  9 10  2  0
 10 11  1  0
 10 17  1  0
 11 12  1  0
 12 13  1  0
 13 14  1  6
 13 15  1  0
 15 16  1  0
 16 17  1  0
 17 18  1  0
 18 19  1  0
 19 20  2  0
 19 25  1  0
 20 21  1  0
 21 22  1  0
 21 25  2  0
 22 23  2  3
 23 24  1  0
 26 27  1  0
 26 31  1  0
 27 28  2  3
 28 29  1  0
 28 30  1  0
M  CHG  1  14   1
M  END
