
     RDKit          3D

 31 35  0  0  0  0  0  0  0  0999 V2000
    0.0560   -1.7380    0.6100 O   0  0  0  0  0  0  0  0  0  0  0  0
    0.4440   -0.5540    0.5350 C   0  0  0  0  0  0  0  0  0  0  0  0
   -0.5350    0.4620    0.3410 N   0  0  0  0  0  0  0  0  0  0  0  0
   -1.9210    0.1790    0.2310 C   0  0  0  0  0  0  0  0  0  0  0  0
   -2.5470   -1.0200    0.2840 N   0  0  0  0  0  0  0  0  0  0  0  0
   -3.8290   -0.8770    0.1430 N   0  0  0  0  0  0  0  0  0  0  0  0
   -4.0830    0.4540   -0.0090 C   0  0  0  0  0  0  0  0  0  0  0  0
   -5.2900    1.1060   -0.1910 C   0  0  0  0  0  0  0  0  0  0  0  0
   -5.3060    2.4970   -0.3260 C   0  0  0  0  0  0  0  0  0  0  0  0
   -6.8570    3.2690   -0.5540 Cl  0  0  0  0  0  0  0  0  0  0  0  0
   -4.1170    3.1950   -0.2760 C   0  0  0  0  0  0  0  0  0  0  0  0
   -2.9260    2.5120   -0.0930 C   0  0  0  0  0  0  0  0  0  0  0  0
   -2.8870    1.1400    0.0430 C   0  0  0  0  0  0  0  0  0  0  0  0
   -6.6140    0.4890   -0.2480 C   0  0  0  0  0  0  0  0  0  0  0  0
   -6.7690   -0.7060   -0.9740 N   0  0  0  0  0  0  0  0  0  0  0  0
   -5.6880   -1.5990   -1.1170 C   0  0  0  0  0  0  0  0  0  0  0  0
   -4.8830   -1.8920    0.1260 C   0  0  0  0  0  0  0  0  0  0  0  0
    1.8380   -0.2280    0.6420 N   0  0  0  0  0  0  0  0  0  0  0  0
    2.8200   -1.1200    0.8240 C   0  0  0  0  0  0  0  0  0  0  0  0
    4.0630   -0.4700    0.8840 C   0  0  0  0  0  0  0  0  0  0  0  0
    5.2840   -1.1440    1.1110 N   0  0  0  0  0  0  0  0  0  0  0  0
    6.5150   -0.7290    0.5610 C   0  0  0  0  0  0  0  0  0  0  0  0
    6.6310    0.2180   -0.4220 C   0  0  0  0  0  0  0  0  0  0  0  0
    7.8450    0.5780   -0.9650 C   0  0  0  0  0  0  0  0  0  0  0  0
    7.9070    1.8130   -2.2310 Cl  0  0  0  0  0  0  0  0  0  0  0  0
    8.9960   -0.0170   -0.5280 C   0  0  0  0  0  0  0  0  0  0  0  0
    8.8990   -0.9790    0.4650 C   0  0  0  0  0  0  0  0  0  0  0  0
    7.6990   -1.3280    0.9970 C   0  0  0  0  0  0  0  0  0  0  0  0
    7.5750   -2.5510    2.2620 Cl  0  0  0  0  0  0  0  0  0  0  0  0
    3.7420    0.8550    0.7270 C   0  0  0  0  0  0  0  0  0  0  0  0
    2.3990    0.9530    0.5840 N   0  0  0  0  0  0  0  0  0  0  0  0
  1  2  2  0
  2  3  1  0
  2 18  1  0
  3  4  1  0
  4  5  2  0
  4 13  1  0
  5  6  1  0
  6  7  1  0
  6 17  1  0
  7  8  2  0
  7 13  1  0
  8  9  1  0
  8 14  1  0
  9 10  1  0
  9 11  2  0
 11 12  1  0
 12 13  2  0
 14 15  1  0
 15 16  1  0
 16 17  1  0
 18 19  1  0
 18 31  1  0
 19 20  2  0
 20 21  1  0
 20 30  1  0
 21 22  1  0
 22 23  2  0
 22 28  1  0
 23 24  1  0
 24 25  1  0
 24 26  2  0
 26 27  1  0
 27 28  2  0
 28 29  1  0
 30 31  2  0
M  CHG  1  15   1
M  END
