
     RDKit          3D

 29 32  0  0  0  0  0  0  0  0999 V2000
   -1.5360    1.9700    1.6080 C   0  0  0  0  0  0  0  0  0  0  0  0
   -2.2230    1.5930    0.3300 C   0  0  2  0  0  0  0  0  0  0  0  0
   -1.5980    0.3470   -0.2930 C   0  0  0  0  0  0  0  0  0  0  0  0
   -2.5690   -0.7420   -0.4800 C   0  0  0  0  0  0  0  0  0  0  0  0
   -2.5260   -1.9930   -0.1180 C   0  0  0  0  0  0  0  0  0  0  0  0
   -1.5910   -2.8340    0.5740 C   0  0  0  0  0  0  0  0  0  0  0  0
   -1.8850   -3.2500    1.8200 N   0  0  0  0  0  0  0  0  0  0  0  0
   -0.3370   -3.3580    0.1500 N   0  0  0  0  0  0  0  0  0  0  0  0
    0.0110   -4.2190   -0.9290 C   0  0  0  0  0  0  0  0  0  0  0  0
    1.0650   -5.2300   -0.5270 C   0  0  0  0  0  0  0  0  0  0  0  0
    2.6650   -4.6790   -1.2530 S   0  0  0  0  0  0  0  0  0  0  0  0
    2.7210   -2.8460   -1.0210 C   0  0  0  0  0  0  0  0  0  0  0  0
    3.1720   -2.5650    0.2730 C   0  0  0  0  0  0  0  0  0  0  0  0
    3.0620   -1.3080    0.8360 C   0  0  0  0  0  0  0  0  0  0  0  0
    2.4620   -0.3810   -0.0160 C   0  0  0  0  0  0  0  0  0  0  0  0
    2.0310   -0.6770   -1.2840 C   0  0  0  0  0  0  0  0  0  0  0  0
    2.1460   -1.9450   -1.8700 C   0  0  0  0  0  0  0  0  0  0  0  0
    1.5030    0.3670   -1.7800 O   0  0  0  0  0  0  0  0  0  0  0  0
    1.5090    1.3530   -0.9680 C   0  0  0  0  0  0  0  0  0  0  0  0
    0.9720    2.6280   -1.1570 C   0  0  0  0  0  0  0  0  0  0  0  0
    1.0810    3.4580   -0.0750 C   0  0  0  0  0  0  0  0  0  0  0  0
    1.7210    3.0230    1.1220 C   0  0  0  0  0  0  0  0  0  0  0  0
    2.2540    1.7660    1.2870 C   0  0  0  0  0  0  0  0  0  0  0  0
    2.1170    0.9420    0.1870 C   0  0  0  0  0  0  0  0  0  0  0  0
    0.4010    4.7270    0.1640 N   0  0  0  0  0  0  0  0  0  0  0  0
   -1.0130    4.9500    0.0190 C   0  0  0  0  0  0  0  0  0  0  0  0
   -1.3640    6.1320   -0.2460 O   0  0  0  0  0  0  0  0  0  0  0  0
   -2.0600    4.0020    0.1380 N   0  0  0  0  0  0  0  0  0  0  0  0
   -2.2920    2.7720   -0.5820 C   0  0  0  0  0  0  0  0  0  0  0  0
  2  1  1  1
  2  3  1  0
  2 29  1  0
  3  4  1  0
  4  5  2  0
  5  6  1  0
  6  7  2  0
  6  8  1  0
  8  9  1  0
  9 10  1  0
 10 11  1  0
 11 12  1  0
 12 13  1  0
 12 17  2  0
 13 14  2  0
 14 15  1  0
 15 16  2  0
 15 24  1  0
 16 17  1  0
 16 18  1  0
 18 19  1  0
 19 20  1  0
 19 24  2  0
 20 21  2  0
 21 22  1  0
 21 25  1  0
 22 23  2  0
 23 24  1  0
 25 26  1  0
 26 27  2  0
 26 28  1  0
 28 29  1  0
M  END
