
     RDKit          3D

 29 31  0  0  0  0  0  0  0  0999 V2000
    4.4410   -1.6120   -0.2720 C   0  0  0  0  0  0  0  0  0  0  0  0
    3.2230   -2.2390    0.2900 C   0  0  0  0  0  0  0  0  0  0  0  0
    2.0200   -2.1740   -0.2610 C   0  0  0  0  0  0  0  0  0  0  0  0
    1.9440   -1.3940   -1.5410 C   0  0  0  0  0  0  0  0  0  0  0  0
    1.3680    0.2690   -1.3820 S   0  0  0  0  0  0  0  0  0  0  0  0
    2.6050    1.4840   -1.0850 C   0  0  0  0  0  0  0  0  0  0  0  0
    3.7470    1.8060   -1.6910 N   0  0  0  0  0  0  0  0  0  0  0  0
    4.3280    2.8290   -1.0520 N   0  0  0  0  0  0  0  0  0  0  0  0
    3.5310    3.1580   -0.0200 C   0  0  0  0  0  0  0  0  0  0  0  0
    3.7960    4.0870    0.7810 O   0  0  0  0  0  0  0  0  0  0  0  0
    2.4750    2.3300   -0.0420 N   0  0  0  0  0  0  0  0  0  0  0  0
    1.2980    2.2280    0.8370 C   0  0  0  0  0  0  0  0  0  0  0  0
    1.3230    0.8990    1.5740 C   0  0  0  0  0  0  0  0  0  0  0  0
    0.0450    0.3760    1.9980 C   0  0  0  0  0  0  0  0  0  0  0  0
   -0.1380    0.4620    3.3100 O   0  0  0  0  0  0  0  0  0  0  0  0
   -1.0550   -0.2000    1.3540 N   0  0  0  0  0  0  0  0  0  0  0  0
   -1.1800   -1.3550    0.5410 C   0  0  0  0  0  0  0  0  0  0  0  0
   -2.1950   -1.4680   -0.2840 C   0  0  0  0  0  0  0  0  0  0  0  0
   -3.2850   -0.6190   -0.5760 C   0  0  0  0  0  0  0  0  0  0  0  0
   -4.2880   -1.0590   -1.4410 C   0  0  0  0  0  0  0  0  0  0  0  0
   -5.3830   -0.1440   -1.6420 C   0  0  0  0  0  0  0  0  0  0  0  0
   -5.5540    1.0280   -1.0770 C   0  0  0  0  0  0  0  0  0  0  0  0
   -4.5640    1.5440   -0.0840 C   0  0  0  0  0  0  0  0  0  0  0  0
   -3.2950    0.8300   -0.3880 C   0  0  0  0  0  0  0  0  0  0  0  0
   -2.2080    1.5480   -0.6200 C   0  0  0  0  0  0  0  0  0  0  0  0
   -2.2950    3.0150   -0.4070 C   0  0  0  0  0  0  0  0  0  0  0  0
   -0.2980   -2.5390    0.6580 C   0  0  0  0  0  0  0  0  0  0  0  0
    0.9150   -2.8740    0.3650 C   0  0  0  0  0  0  0  0  0  0  0  0
    1.2960   -4.3400    0.7770 C   0  0  0  0  0  0  0  0  0  0  0  0
  1  2  1  0
  2  3  2  3
  3  4  1  0
  3 28  1  0
  4  5  1  0
  5  6  1  0
  6  7  2  0
  6 11  1  0
  7  8  1  0
  8  9  1  0
  9 10  2  0
  9 11  1  0
 11 12  1  0
 12 13  1  0
 13 14  1  0
 14 15  2  0
 14 16  1  0
 16 17  1  0
 17 18  2  3
 17 27  1  0
 18 19  1  0
 19 20  2  0
 19 24  1  0
 20 21  1  0
 21 22  2  0
 22 23  1  0
 23 24  1  0
 24 25  2  3
 25 26  1  0
 27 28  2  0
 28 29  1  0
M  END
