
     RDKit          3D

 30 34  0  0  0  0  0  0  0  0999 V2000
    5.7890   -2.9660   -0.6610 Cl  0  0  0  0  0  0  0  0  0  0  0  0
    5.7530   -1.3130   -1.1790 C   0  0  0  0  0  0  0  0  0  0  0  0
    6.6350   -0.8460   -2.0610 N   0  0  0  0  0  0  0  0  0  0  0  0
    6.3710    0.5390   -2.3120 C   0  0  2  0  0  0  0  0  0  0  0  0
    7.7610    1.5590   -1.9330 Cl  0  0  0  0  0  0  0  0  0  0  0  0
    5.1980    0.8300   -1.4680 C   0  0  0  0  0  0  0  0  0  0  0  0
    4.8390   -0.2920   -0.7880 C   0  0  0  0  0  0  0  0  0  0  0  0
    3.6590   -0.2730    0.0600 C   0  0  0  0  0  0  0  0  0  0  0  0
    2.7320    0.7220   -0.1450 N   0  0  0  0  0  0  0  0  0  0  0  0
    1.6290    0.9190    0.5520 C   0  0  0  0  0  0  0  0  0  0  0  0
    1.3170    0.0660    1.6130 C   0  0  0  0  0  0  0  0  0  0  0  0
    0.1240    0.2240    2.3820 C   0  0  0  0  0  0  0  0  0  0  0  0
    0.1930    0.3300    3.7230 N   0  0  0  0  0  0  0  0  0  0  0  0
   -0.9010    0.4730    4.4660 N   0  0  0  0  0  0  0  0  0  0  0  0
   -2.1250    0.5160    3.9090 C   0  0  0  0  0  0  0  0  0  0  0  0
   -2.2290    0.4130    2.5890 N   0  0  0  0  0  0  0  0  0  0  0  0
   -1.1200    0.2650    1.8070 C   0  0  0  0  0  0  0  0  0  0  0  0
   -1.2690    0.1210    0.4280 N   0  0  0  0  0  0  0  0  0  0  0  0
   -2.5200    0.1580   -0.2270 C   0  0  0  0  0  0  0  0  0  0  0  0
   -2.5620    0.5000   -1.5990 C   0  0  0  0  0  0  0  0  0  0  0  0
   -3.7350    0.5320   -2.3150 C   0  0  0  0  0  0  0  0  0  0  0  0
   -4.9340    0.2260   -1.7150 C   0  0  0  0  0  0  0  0  0  0  0  0
   -6.2120    0.1880   -2.2080 C   0  0  0  0  0  0  0  0  0  0  0  0
   -7.0090   -0.1840   -1.1430 C   0  0  0  0  0  0  0  0  0  0  0  0
   -6.2050   -0.3540   -0.0700 N   0  0  0  0  0  0  0  0  0  0  0  0
   -4.9380   -0.1110   -0.3890 C   0  0  0  0  0  0  0  0  0  0  0  0
   -3.7360   -0.1410    0.3340 C   0  0  0  0  0  0  0  0  0  0  0  0
    2.2080   -0.9520    1.8720 C   0  0  0  0  0  0  0  0  0  0  0  0
    3.3600   -1.1040    1.0960 C   0  0  0  0  0  0  0  0  0  0  0  0
    4.4880   -2.3650    1.5640 Cl  0  0  0  0  0  0  0  0  0  0  0  0
  1  2  1  0
  2  3  2  0
  2  7  1  0
  3  4  1  0
  4  5  1  1
  4  6  1  0
  6  7  2  0
  7  8  1  0
  8  9  2  0
  8 29  1  0
  9 10  1  0
 10 11  2  0
 11 12  1  0
 11 28  1  0
 12 13  2  0
 12 17  1  0
 13 14  1  0
 14 15  2  0
 15 16  1  0
 16 17  2  0
 17 18  1  0
 18 19  1  0
 19 20  2  0
 19 27  1  0
 20 21  1  0
 21 22  2  0
 22 23  1  0
 22 26  1  0
 23 24  2  0
 24 25  1  0
 25 26  1  0
 26 27  2  0
 28 29  2  0
 29 30  1  0
M  CHG  1   3   1
M  END
