
     RDKit          3D

 20 21  0  0  0  0  0  0  0  0999 V2000
    5.5160   -1.3750    0.4950 C   0  0  0  0  0  0  0  0  0  0  0  0
    5.0140   -0.3770   -0.4480 C   0  0  0  0  0  0  0  0  0  0  0  0
    3.8040    0.0210   -0.6680 C   0  0  0  0  0  0  0  0  0  0  0  0
    3.5820    1.0870   -1.7250 C   0  0  0  0  0  0  0  0  0  0  0  0
    5.1370    1.5290   -2.4180 Cl  0  0  0  0  0  0  0  0  0  0  0  0
    2.5780   -0.4320   -0.0150 C   0  0  0  0  0  0  0  0  0  0  0  0
    1.2860    0.0340   -0.2920 C   0  0  0  0  0  0  0  0  0  0  0  0
    0.4420   -0.6430    0.5310 C   0  0  0  0  0  0  0  0  0  0  0  0
   -1.0080   -0.5040    0.6130 C   0  0  0  0  0  0  0  0  0  0  0  0
   -1.6700   -1.1980    1.4250 O   0  0  0  0  0  0  0  0  0  0  0  0
   -1.7030    0.3810   -0.1850 O   0  0  0  0  0  0  0  0  0  0  0  0
   -3.0830    0.4840   -0.0760 C   0  0  0  0  0  0  0  0  0  0  0  0
   -3.7140    1.3580    0.7850 C   0  0  0  0  0  0  0  0  0  0  0  0
   -5.0880    1.4430    0.8770 C   0  0  0  0  0  0  0  0  0  0  0  0
   -5.8700    0.6270    0.0820 C   0  0  0  0  0  0  0  0  0  0  0  0
   -7.2640    0.6900    0.1530 O   0  0  0  0  0  0  0  0  0  0  0  0
   -5.2740   -0.2500   -0.7800 C   0  0  0  0  0  0  0  0  0  0  0  0
   -3.8850   -0.3210   -0.8590 C   0  0  0  0  0  0  0  0  0  0  0  0
    1.1790   -1.4620    1.2530 N   0  0  0  0  0  0  0  0  0  0  0  0
    2.4840   -1.3540    0.9410 N   0  0  0  0  0  0  0  0  0  0  0  0
  1  2  1  0
  2  3  2  3
  3  4  1  0
  3  6  1  0
  4  5  1  0
  6  7  2  0
  6 20  1  0
  7  8  1  0
  8  9  1  0
  8 19  2  0
  9 10  2  0
  9 11  1  0
 11 12  1  0
 12 13  2  0
 12 18  1  0
 13 14  1  0
 14 15  2  0
 15 16  1  0
 15 17  1  0
 17 18  2  0
 19 20  1  0
M  END
