
     RDKit          3D

 20 21  0  0  0  0  0  0  0  0999 V2000
    6.4350   -0.7170    1.2990 C   0  0  0  0  0  0  0  0  0  0  0  0
    5.0770   -0.7310    1.6710 O   0  0  0  0  0  0  0  0  0  0  0  0
    4.0690   -0.2770    0.8350 C   0  0  0  0  0  0  0  0  0  0  0  0
    2.7490   -0.3030    1.2260 C   0  0  0  0  0  0  0  0  0  0  0  0
    1.7630    0.1500    0.3890 C   0  0  0  0  0  0  0  0  0  0  0  0
    0.3360    0.1380    0.7920 C   0  0  0  0  0  0  0  0  0  0  0  0
    0.1380    0.0560    1.9940 O   0  0  0  0  0  0  0  0  0  0  0  0
   -0.7220    0.2130   -0.0950 N   0  0  0  0  0  0  0  0  0  0  0  0
   -2.1080    0.2270   -0.0070 C   0  0  0  0  0  0  0  0  0  0  0  0
   -2.8220    0.1690    1.0900 C   0  0  0  0  0  0  0  0  0  0  0  0
   -2.0150    0.0650    2.6000 Cl  0  0  0  0  0  0  0  0  0  0  0  0
   -4.3130    0.1820    1.1880 C   0  0  0  0  0  0  0  0  0  0  0  0
   -5.2260   -0.2380    0.3390 C   0  0  0  0  0  0  0  0  0  0  0  0
   -4.9500   -0.8540   -0.9840 C   0  0  0  0  0  0  0  0  0  0  0  0
   -3.9130   -0.1340   -1.7360 C   0  0  0  0  0  0  0  0  0  0  0  0
   -2.7410    0.3220   -1.3700 C   0  0  0  0  0  0  0  0  0  0  0  0
   -1.9580    0.9810   -2.3310 O   0  0  0  0  0  0  0  0  0  0  0  0
    2.1480    0.6230   -0.8400 C   0  0  0  0  0  0  0  0  0  0  0  0
    3.4790    0.6470   -1.2270 C   0  0  0  0  0  0  0  0  0  0  0  0
    4.3950    0.1970   -0.3800 N   0  0  0  0  0  0  0  0  0  0  0  0
  1  2  1  0
  2  3  1  0
  3  4  2  0
  3 20  1  0
  4  5  1  0
  5  6  1  0
  5 18  2  0
  6  7  2  0
  6  8  1  0
  8  9  1  0
  9 10  2  0
  9 16  1  0
 10 11  1  0
 10 12  1  0
 12 13  2  0
 13 14  1  0
 14 15  1  0
 15 16  2  0
 16 17  1  0
 18 19  1  0
 19 20  2  0
M  END
