
     RDKit          3D

 20 21  0  0  0  0  0  0  0  0999 V2000
   -3.7290   -1.8640    1.4020 C   0  0  0  0  0  0  0  0  0  0  0  0
   -3.8940   -0.8270    0.4860 O   0  0  0  0  0  0  0  0  0  0  0  0
   -2.8740   -0.1370   -0.1280 C   0  0  0  0  0  0  0  0  0  0  0  0
   -1.5360   -0.3970    0.0980 C   0  0  0  0  0  0  0  0  0  0  0  0
   -0.5240    0.3200   -0.5390 C   0  0  0  0  0  0  0  0  0  0  0  0
    0.8490    0.0110   -0.2700 N   0  0  0  0  0  0  0  0  0  0  0  0
    1.6600    0.9670    0.2380 C   0  0  0  0  0  0  0  0  0  0  0  0
    1.0940    2.3120    0.5000 C   0  0  0  0  0  0  0  0  0  0  0  0
    2.9810    0.7390    0.5190 C   0  0  0  0  0  0  0  0  0  0  0  0
    3.9910    2.0090    1.1760 Cl  0  0  0  0  0  0  0  0  0  0  0  0
    3.5030   -0.5090    0.2750 C   0  0  0  0  0  0  0  0  0  0  0  0
    4.9310   -0.8190    0.5590 C   0  0  0  0  0  0  0  0  0  0  0  0
    2.6970   -1.4990   -0.2420 C   0  0  0  0  0  0  0  0  0  0  0  0
    3.2210   -2.7760   -0.4940 O   0  0  0  0  0  0  0  0  0  0  0  0
    1.3780   -1.2010   -0.5010 C   0  0  0  0  0  0  0  0  0  0  0  0
    0.6490   -2.1190   -0.9750 O   0  0  0  0  0  0  0  0  0  0  0  0
   -0.8580    1.3220   -1.4240 C   0  0  0  0  0  0  0  0  0  0  0  0
   -2.1840    1.6070   -1.6720 C   0  0  0  0  0  0  0  0  0  0  0  0
   -3.1800    0.8720   -1.0190 C   0  0  0  0  0  0  0  0  0  0  0  0
   -4.5640    1.1500   -1.2610 N   0  0  0  0  0  0  0  0  0  0  0  0
  1  2  1  0
  2  3  1  0
  3  4  2  0
  3 19  1  0
  4  5  1  0
  5  6  1  0
  5 17  2  0
  6  7  1  0
  6 15  1  0
  7  8  1  0
  7  9  2  0
  9 10  1  0
  9 11  1  0
 11 12  1  0
 11 13  2  0
 13 14  1  0
 13 15  1  0
 15 16  2  0
 17 18  1  0
 18 19  2  0
 19 20  1  0
M  END
