
     RDKit          3D

 20 21  0  0  0  0  0  0  0  0999 V2000
   -3.5210    2.9030   -1.3810 C   0  0  0  0  0  0  0  0  0  0  0  0
   -2.3270    2.1490   -0.8780 C   0  0  0  0  0  0  0  0  0  0  0  0
   -1.1790    2.6230   -1.0250 O   0  0  0  0  0  0  0  0  0  0  0  0
   -2.5500    0.8670   -0.2240 C   0  0  0  0  0  0  0  0  0  0  0  0
   -3.7250    0.2820   -0.0260 O   0  0  0  0  0  0  0  0  0  0  0  0
   -3.6050   -0.8590    0.5850 C   0  0  0  0  0  0  0  0  0  0  0  0
   -4.6490   -1.8370    1.0020 C   0  0  0  0  0  0  0  0  0  0  0  0
   -2.2460   -1.0490    0.8120 C   0  0  0  0  0  0  0  0  0  0  0  0
   -1.5920    0.0410    0.3010 C   0  0  0  0  0  0  0  0  0  0  0  0
   -0.1270    0.2590    0.3290 C   0  0  0  0  0  0  0  0  0  0  0  0
    0.3440    1.3660    0.6620 O   0  0  0  0  0  0  0  0  0  0  0  0
    0.7350   -0.7970   -0.0240 N   0  0  0  0  0  0  0  0  0  0  0  0
    2.1360   -0.7580   -0.0500 C   0  0  0  0  0  0  0  0  0  0  0  0
    2.8980    0.3330    0.2540 C   0  0  0  0  0  0  0  0  0  0  0  0
    4.3000    0.3260    0.2110 C   0  0  0  0  0  0  0  0  0  0  0  0
    5.0150    1.4980    0.5410 N   0  0  0  0  0  0  0  0  0  0  0  0
    4.9490   -0.8330   -0.1540 C   0  0  0  0  0  0  0  0  0  0  0  0
    4.1830   -1.9510   -0.4660 C   0  0  0  0  0  0  0  0  0  0  0  0
    2.8170   -1.9350   -0.4220 C   0  0  0  0  0  0  0  0  0  0  0  0
    1.9570   -3.3990   -0.8330 Cl  0  0  0  0  0  0  0  0  0  0  0  0
  1  2  1  0
  2  3  2  0
  2  4  1  0
  4  5  1  0
  4  9  2  0
  5  6  1  0
  6  7  1  0
  6  8  2  0
  8  9  1  0
  9 10  1  0
 10 11  2  0
 10 12  1  0
 12 13  1  0
 13 14  2  0
 13 19  1  0
 14 15  1  0
 15 16  1  0
 15 17  2  0
 17 18  1  0
 18 19  2  0
 19 20  1  0
M  END
