
     RDKit          3D

 37 42  0  0  0  0  0  0  0  0999 V2000
   -6.1660   -2.0840   -0.1810 C   0  0  0  0  0  0  0  0  0  0  0  0
   -5.3860   -0.7610   -0.0150 C   0  0  2  0  0  0  0  0  0  0  0  0
   -6.1740    0.4480   -0.3770 C   0  0  0  0  0  0  0  0  0  0  0  0
   -7.2890    0.8280    0.4190 N   0  0  0  0  0  0  0  0  0  0  0  0
   -7.7170    2.1410   -0.1030 C   0  0  0  0  0  0  0  0  0  0  0  0
   -9.2120    2.1930   -0.2520 C   0  0  0  0  0  0  0  0  0  0  0  0
   -9.7420    1.8060    0.9770 O   0  0  0  0  0  0  0  0  0  0  0  0
   -9.6170    0.4260    1.0620 C   0  0  0  0  0  0  0  0  0  0  0  0
   -8.3650   -0.0990    0.3560 C   0  0  0  0  0  0  0  0  0  0  0  0
   -4.2980   -0.8570   -0.9130 O   0  0  0  0  0  0  0  0  0  0  0  0
   -2.9980   -1.1140   -0.5910 C   0  0  0  0  0  0  0  0  0  0  0  0
   -2.5860   -1.3330    0.6980 C   0  0  0  0  0  0  0  0  0  0  0  0
   -1.2250   -1.5900    0.9170 C   0  0  0  0  0  0  0  0  0  0  0  0
   -0.3370   -1.6240   -0.1030 C   0  0  0  0  0  0  0  0  0  0  0  0
   -0.7240   -1.4080   -1.4090 C   0  0  0  0  0  0  0  0  0  0  0  0
   -2.0490   -1.1550   -1.6370 C   0  0  0  0  0  0  0  0  0  0  0  0
    0.2730   -1.4730   -2.5110 C   0  0  0  0  0  0  0  0  0  0  0  0
    1.5580   -0.8130   -2.2590 C   0  0  0  0  0  0  0  0  0  0  0  0
    2.1600   -0.0560   -3.2720 C   0  0  0  0  0  0  0  0  0  0  0  0
    3.3740    0.5320   -3.0340 C   0  0  0  0  0  0  0  0  0  0  0  0
    4.0030    0.3890   -1.8210 C   0  0  0  0  0  0  0  0  0  0  0  0
    3.4270   -0.3660   -0.7720 C   0  0  0  0  0  0  0  0  0  0  0  0
    4.1820   -0.4950    0.4400 C   0  0  0  0  0  0  0  0  0  0  0  0
    3.7050   -0.9480    1.6360 C   0  0  0  0  0  0  0  0  0  0  0  0
    4.5510   -1.0270    2.7640 C   0  0  0  0  0  0  0  0  0  0  0  0
    4.0700   -1.4520    3.8510 O   0  0  0  0  0  0  0  0  0  0  0  0
    5.8550   -0.6390    2.6310 C   0  0  0  0  0  0  0  0  0  0  0  0
    6.3050   -0.1800    1.3910 C   0  0  0  0  0  0  0  0  0  0  0  0
    7.6640    0.2330    1.2210 N   0  0  0  0  0  0  0  0  0  0  0  0
    8.6210    0.1970    2.2810 C   0  0  0  0  0  0  0  0  0  0  0  0
    9.8730    0.9070    1.7480 C   0  0  0  0  0  0  0  0  0  0  0  0
    9.4890    2.1500    1.2480 O   0  0  0  0  0  0  0  0  0  0  0  0
    8.8360    1.9870    0.0370 C   0  0  0  0  0  0  0  0  0  0  0  0
    8.0740    0.7000   -0.0830 C   0  0  0  0  0  0  0  0  0  0  0  0
    5.4780   -0.1390    0.4210 O   0  0  0  0  0  0  0  0  0  0  0  0
    2.2400   -0.9220   -1.0530 C   0  0  0  0  0  0  0  0  0  0  0  0
    1.3910   -1.9370    0.1690 S   0  0  0  0  0  0  0  0  0  0  0  0
  2  1  1  6
  2  3  1  0
  2 10  1  0
  3  4  1  0
  4  5  1  0
  4  9  1  0
  5  6  1  0
  6  7  1  0
  7  8  1  0
  8  9  1  0
 10 11  1  0
 11 12  2  0
 11 16  1  0
 12 13  1  0
 13 14  2  0
 14 15  1  0
 14 37  1  0
 15 16  2  0
 15 17  1  0
 17 18  1  0
 18 19  2  0
 18 36  1  0
 19 20  1  0
 20 21  2  0
 21 22  1  0
 22 23  1  0
 22 36  2  0
 23 24  2  0
 23 35  1  0
 24 25  1  0
 25 26  2  0
 25 27  1  0
 27 28  2  0
 28 29  1  0
 28 35  1  0
 29 30  1  0
 29 34  1  0
 30 31  1  0
 31 32  1  0
 32 33  1  0
 33 34  1  0
 36 37  1  0
M  END
