
     RDKit          3D

 36 40  0  0  0  0  0  0  0  0999 V2000
   -3.9780    1.9020   -1.3480 C   0  0  0  0  0  0  0  0  0  0  0  0
   -3.5100    0.6630   -0.6660 C   0  0  1  0  0  0  0  0  0  0  0  0
   -3.2730   -0.4830   -1.6200 C   0  0  0  0  0  0  0  0  0  0  0  0
   -4.5370   -0.8530   -2.3660 C   0  0  0  0  0  0  0  0  0  0  0  0
   -4.2000   -1.9220   -3.2190 O   0  0  0  0  0  0  0  0  0  0  0  0
   -2.2890    0.9370    0.1210 N   0  0  0  0  0  0  0  0  0  0  0  0
   -2.3710    0.8700    1.5530 C   0  0  0  0  0  0  0  0  0  0  0  0
   -1.9300   -0.3660    2.2440 C   0  0  1  0  0  0  0  0  0  0  0  0
   -0.6150   -0.7380    2.1590 O   0  0  0  0  0  0  0  0  0  0  0  0
   -2.5030   -0.5290    3.6450 C   0  0  0  0  0  0  0  0  0  0  0  0
   -2.9950   -1.3620    2.5410 C   0  0  0  0  0  0  0  0  0  0  0  0
   -1.1280    1.3840   -0.5300 C   0  0  0  0  0  0  0  0  0  0  0  0
   -1.2040    1.6380   -1.7570 O   0  0  0  0  0  0  0  0  0  0  0  0
    0.1440    1.5740    0.1070 C   0  0  0  0  0  0  0  0  0  0  0  0
    0.4150    2.5610    1.0220 C   0  0  0  0  0  0  0  0  0  0  0  0
    1.6100    2.6650    1.6790 C   0  0  0  0  0  0  0  0  0  0  0  0
    1.8400    3.5840    2.5210 O   0  0  0  0  0  0  0  0  0  0  0  0
    2.6030    1.7570    1.4340 C   0  0  0  0  0  0  0  0  0  0  0  0
    3.8050    1.8670    2.1000 C   0  0  0  0  0  0  0  0  0  0  0  0
    4.8290    0.9740    1.8780 C   0  0  0  0  0  0  0  0  0  0  0  0
    6.0440    1.0530    2.5250 C   0  0  0  0  0  0  0  0  0  0  0  0
    6.9720    0.1730    2.2680 O   0  0  0  0  0  0  0  0  0  0  0  0
    6.8580   -0.8160    1.4240 C   0  0  0  0  0  0  0  0  0  0  0  0
    5.6640   -0.9490    0.7430 C   0  0  0  0  0  0  0  0  0  0  0  0
    4.6380   -0.0450    0.9720 C   0  0  0  0  0  0  0  0  0  0  0  0
    3.4150   -0.1420    0.3070 C   0  0  0  0  0  0  0  0  0  0  0  0
    3.2700   -1.4490   -0.8160 Cl  0  0  0  0  0  0  0  0  0  0  0  0
    2.3700    0.7350    0.5060 C   0  0  0  0  0  0  0  0  0  0  0  0
    1.1730    0.6330   -0.1530 C   0  0  0  0  0  0  0  0  0  0  0  0
    0.9890   -0.3560   -1.2000 C   0  0  0  0  0  0  0  0  0  0  0  0
    0.4120   -1.5640   -0.9540 C   0  0  0  0  0  0  0  0  0  0  0  0
    0.1820   -2.4990   -1.9650 C   0  0  0  0  0  0  0  0  0  0  0  0
    0.5630   -2.1580   -3.2410 C   0  0  0  0  0  0  0  0  0  0  0  0
    0.3330   -3.0940   -4.2550 O   0  0  0  0  0  0  0  0  0  0  0  0
    1.1530   -0.9370   -3.5190 C   0  0  0  0  0  0  0  0  0  0  0  0
    1.3740   -0.0270   -2.5210 C   0  0  0  0  0  0  0  0  0  0  0  0
  2  1  1  6
  2  3  1  0
  2  6  1  0
  3  4  1  0
  4  5  1  0
  6  7  1  0
  6 12  1  0
  7  8  1  0
  8  9  1  1
  8 10  1  0
  8 11  1  0
 10 11  1  0
 12 13  2  0
 12 14  1  0
 14 15  2  0
 14 29  1  0
 15 16  1  0
 16 17  2  0
 16 18  1  0
 18 19  2  0
 18 28  1  0
 19 20  1  0
 20 21  2  0
 20 25  1  0
 21 22  1  0
 22 23  1  0
 23 24  2  0
 24 25  1  0
 25 26  2  0
 26 27  1  0
 26 28  1  0
 28 29  2  0
 29 30  1  0
 30 31  2  0
 30 36  1  0
 31 32  1  0
 32 33  2  0
 33 34  1  0
 33 35  1  0
 35 36  2  0
M  END
