
     RDKit          3D

 36 40  0  0  0  0  0  0  0  0999 V2000
    5.4520    2.6320    1.8370 C   0  0  0  0  0  0  0  0  0  0  0  0
    5.0980    1.4870    0.9620 C   0  0  0  0  0  0  0  0  0  0  0  0
    4.7270    1.6800   -0.3510 C   0  0  0  0  0  0  0  0  0  0  0  0
    4.3910    0.6280   -1.1920 C   0  0  0  0  0  0  0  0  0  0  0  0
    4.4300   -0.6570   -0.6970 C   0  0  0  0  0  0  0  0  0  0  0  0
    4.8010   -0.8530    0.6140 C   0  0  0  0  0  0  0  0  0  0  0  0
    4.8640   -2.4730    1.2840 Cl  0  0  0  0  0  0  0  0  0  0  0  0
    5.1360    0.1990    1.4520 C   0  0  0  0  0  0  0  0  0  0  0  0
    5.5310   -0.0690    2.8670 C   0  0  0  0  0  0  0  0  0  0  0  0
    4.0330   -1.5680   -1.7900 C   0  0  1  0  0  0  0  0  0  0  0  0
    2.6160   -1.7540   -1.8450 O   0  0  0  0  0  0  0  0  0  0  0  0
    2.0740   -3.0100   -1.8860 C   0  0  0  0  0  0  0  0  0  0  0  0
    2.8890   -3.9870   -1.8720 O   0  0  0  0  0  0  0  0  0  0  0  0
    0.6470   -3.3610   -1.9460 C   0  0  0  0  0  0  0  0  0  0  0  0
   -0.2450   -2.3050   -1.9160 O   0  0  0  0  0  0  0  0  0  0  0  0
   -0.3100   -1.4550   -0.8230 C   0  0  0  0  0  0  0  0  0  0  0  0
    0.4970   -1.6440    0.2790 C   0  0  0  0  0  0  0  0  0  0  0  0
    0.4350   -0.7930    1.3710 C   0  0  0  0  0  0  0  0  0  0  0  0
    1.2740   -1.0030    2.4970 N   0  0  0  0  0  0  0  0  0  0  0  0
   -0.4650    0.2440    1.3050 C   0  0  0  0  0  0  0  0  0  0  0  0
   -1.2880    0.4510    0.2040 C   0  0  0  0  0  0  0  0  0  0  0  0
   -1.2310   -0.3880   -0.8830 C   0  0  0  0  0  0  0  0  0  0  0  0
   -1.9700   -0.3000   -2.0070 O   0  0  0  0  0  0  0  0  0  0  0  0
   -2.9580    0.5850   -2.4080 C   0  0  0  0  0  0  0  0  0  0  0  0
   -4.1460    0.6040   -1.5520 C   0  0  0  0  0  0  0  0  0  0  0  0
   -4.5550    1.6850   -0.9290 C   0  0  0  0  0  0  0  0  0  0  0  0
   -5.7290    1.7040   -0.0840 C   0  0  0  0  0  0  0  0  0  0  0  0
   -6.1640    2.8370    0.5740 C   0  0  0  0  0  0  0  0  0  0  0  0
   -7.2910    2.7950    1.3670 C   0  0  0  0  0  0  0  0  0  0  0  0
   -7.9920    1.6320    1.5140 C   0  0  0  0  0  0  0  0  0  0  0  0
   -7.5590    0.4990    0.8570 C   0  0  0  0  0  0  0  0  0  0  0  0
   -6.4330    0.5340    0.0630 C   0  0  0  0  0  0  0  0  0  0  0  0
   -6.0220   -0.7150   -0.6140 C   0  0  0  0  0  0  0  0  0  0  0  0
   -4.8740   -0.5680   -1.3890 O   0  0  0  0  0  0  0  0  0  0  0  0
    4.3770   -0.7020   -3.0090 C   0  0  0  0  0  0  0  0  0  0  0  0
    3.9900    0.5750   -2.5350 O   0  0  0  0  0  0  0  0  0  0  0  0
  1  2  1  0
  2  3  2  0
  2  8  1  0
  3  4  1  0
  4  5  2  0
  4 36  1  0
  5  6  1  0
  5 10  1  0
  6  7  1  0
  6  8  2  0
  8  9  1  0
 10 11  1  1
 10 35  1  0
 11 12  1  0
 12 13  2  0
 12 14  1  0
 14 15  1  0
 15 16  1  0
 16 17  2  0
 16 22  1  0
 17 18  1  0
 18 19  1  0
 18 20  2  0
 20 21  1  0
 21 22  2  0
 22 23  1  0
 23 24  1  0
 24 25  1  0
 25 26  2  0
 25 34  1  0
 26 27  1  0
 27 28  2  0
 27 32  1  0
 28 29  1  0
 29 30  2  0
 30 31  1  0
 31 32  2  0
 32 33  1  0
 33 34  1  0
 35 36  1  0
M  END
