
     RDKit          3D

 36 39  0  0  0  0  0  0  0  0999 V2000
   -7.2750    3.5880    0.1460 C   0  0  0  0  0  0  0  0  0  0  0  0
   -7.4870    2.8050   -1.1380 C   0  0  0  0  0  0  0  0  0  0  0  0
   -6.4440    1.8130   -1.1680 O   0  0  0  0  0  0  0  0  0  0  0  0
   -6.2900    0.8860   -0.2070 C   0  0  0  0  0  0  0  0  0  0  0  0
   -7.2070    1.0360    0.7620 O   0  0  0  0  0  0  0  0  0  0  0  0
   -5.3630   -0.1980   -0.0110 C   0  0  0  0  0  0  0  0  0  0  0  0
   -4.1780   -0.3910   -0.6840 C   0  0  0  0  0  0  0  0  0  0  0  0
   -3.3710   -1.4560   -0.3910 C   0  0  0  0  0  0  0  0  0  0  0  0
   -2.0690   -1.6220   -1.0670 C   0  0  0  0  0  0  0  0  0  0  0  0
   -2.0070   -2.2250   -2.1420 O   0  0  0  0  0  0  0  0  0  0  0  0
   -0.8470   -1.0740   -0.4760 C   0  0  0  0  0  0  0  0  0  0  0  0
   -0.6700    0.2930   -0.3570 C   0  0  0  0  0  0  0  0  0  0  0  0
    0.4460    0.7710    0.2270 C   0  0  0  0  0  0  0  0  0  0  0  0
    1.3930   -0.1330    0.7100 C   0  0  0  0  0  0  0  0  0  0  0  0
    1.2660   -1.4660    0.6150 C   0  0  0  0  0  0  0  0  0  0  0  0
    0.1280   -1.9730    0.0060 C   0  0  0  0  0  0  0  0  0  0  0  0
   -0.0210   -3.3110   -0.1190 O   0  0  0  0  0  0  0  0  0  0  0  0
    0.8240   -4.3150    0.2920 C   0  0  0  0  0  0  0  0  0  0  0  0
    2.5600    0.5310    1.4170 C   0  0  0  0  0  0  0  0  0  0  0  0
    3.1940    1.4720    0.3610 C   0  0  1  0  0  0  0  0  0  0  0  0
    4.5060    0.9970   -0.0400 C   0  0  0  0  0  0  0  0  0  0  0  0
    5.6800    1.2300    0.7230 C   0  0  0  0  0  0  0  0  0  0  0  0
    6.9270    0.8760    0.2560 C   0  0  0  0  0  0  0  0  0  0  0  0
    8.1710    1.1920    1.0310 C   0  0  0  0  0  0  0  0  0  0  0  0
    7.0940    0.2650   -0.9790 C   0  0  0  0  0  0  0  0  0  0  0  0
    8.3710   -0.1090   -1.4560 O   0  0  0  0  0  0  0  0  0  0  0  0
    5.9680    0.0330   -1.7270 C   0  0  0  0  0  0  0  0  0  0  0  0
    4.7270    0.3960   -1.2520 C   0  0  0  0  0  0  0  0  0  0  0  0
    3.3700   -0.0290   -2.2680 Cl  0  0  0  0  0  0  0  0  0  0  0  0
    2.2620    2.1610   -0.5050 C   0  0  0  0  0  0  0  0  0  0  0  0
    0.8880    2.1910    0.2820 C   0  0  0  0  0  0  0  0  0  0  0  0
   -3.7140   -2.3840    0.5860 C   0  0  0  0  0  0  0  0  0  0  0  0
   -2.8840   -3.5830    0.9010 C   0  0  0  0  0  0  0  0  0  0  0  0
   -4.8740   -2.2010    1.2520 N   0  0  0  0  0  0  0  0  0  0  0  0
   -5.6510   -1.1730    0.9700 C   0  0  0  0  0  0  0  0  0  0  0  0
   -6.7420   -1.0210    1.6130 O   0  0  0  0  0  0  0  0  0  0  0  0
  1  2  1  0
  2  3  1  0
  3  4  1  0
  4  5  2  0
  4  6  1  0
  6  7  2  0
  6 35  1  0
  7  8  1  0
  8  9  1  0
  8 32  2  0
  9 10  2  0
  9 11  1  0
 11 12  2  0
 11 16  1  0
 12 13  1  0
 13 14  2  0
 13 31  1  0
 14 15  1  0
 14 19  1  0
 15 16  2  0
 16 17  1  0
 17 18  1  0
 19 20  1  0
 20 21  1  6
 20 30  1  0
 21 22  2  0
 21 28  1  0
 22 23  1  0
 23 24  1  0
 23 25  2  0
 25 26  1  0
 25 27  1  0
 27 28  2  0
 28 29  1  0
 30 31  1  0
 32 33  1  0
 32 34  1  0
 34 35  1  0
 35 36  2  0
M  END
