
     RDKit          3D

 34 36  0  0  0  0  0  0  0  0999 V2000
    2.8630   -1.3870    1.4880 N   0  0  0  0  0  0  0  0  0  0  0  0
    3.4250   -1.0290    0.4510 C   0  0  0  0  0  0  0  0  0  0  0  0
    4.0970   -0.5880   -0.7600 C   0  0  0  0  0  0  0  0  0  0  0  0
    3.3910   -0.1220   -1.9080 C   0  0  0  0  0  0  0  0  0  0  0  0
    2.1280    0.2020   -2.0700 C   0  0  0  0  0  0  0  0  0  0  0  0
    1.1220    0.1830   -1.0740 C   0  0  0  0  0  0  0  0  0  0  0  0
   -0.1640    0.4260   -1.0820 C   0  0  0  0  0  0  0  0  0  0  0  0
   -0.9330    0.8040   -2.2010 C   0  0  0  0  0  0  0  0  0  0  0  0
   -1.9510    1.0330   -2.7430 C   0  0  0  0  0  0  0  0  0  0  0  0
   -2.9330    1.5060   -4.0590 Cl  0  0  0  0  0  0  0  0  0  0  0  0
   -3.0730    0.8760   -1.5500 C   0  0  0  0  0  0  0  0  0  0  0  0
   -3.3480    1.8610   -0.7040 C   0  0  0  0  0  0  0  0  0  0  0  0
   -4.3450    1.4060    0.1640 C   0  0  0  0  0  0  0  0  0  0  0  0
   -4.5820    0.0980   -0.2780 C   0  0  0  0  0  0  0  0  0  0  0  0
   -5.5280   -0.8880    0.2510 C   0  0  2  0  0  0  0  0  0  0  0  0
   -6.8520   -1.0010   -0.4330 C   0  0  0  0  0  0  0  0  0  0  0  0
   -6.7580   -0.5420    0.9980 C   0  0  0  0  0  0  0  0  0  0  0  0
   -3.7550   -0.1350   -1.3330 O   0  0  0  0  0  0  0  0  0  0  0  0
   -0.6800    0.6910    0.3110 C   0  0  0  0  0  0  0  0  0  0  0  0
   -0.0230    1.7800    0.9240 C   0  0  0  0  0  0  0  0  0  0  0  0
   -0.2820    2.0310    2.2920 C   0  0  0  0  0  0  0  0  0  0  0  0
    0.5020    3.3870    3.1020 Cl  0  0  0  0  0  0  0  0  0  0  0  0
   -1.1050    1.2340    2.8860 N   0  0  0  0  0  0  0  0  0  0  0  0
   -1.7620    0.1750    2.3500 C   0  0  0  0  0  0  0  0  0  0  0  0
   -2.6340   -0.5610    3.2230 C   0  0  0  0  0  0  0  0  0  0  0  0
   -3.2890   -1.5700    2.9150 O   0  0  0  0  0  0  0  0  0  0  0  0
   -1.5160   -0.0780    1.0030 C   0  0  0  0  0  0  0  0  0  0  0  0
    5.4120   -0.8240   -0.7530 C   0  0  0  0  0  0  0  0  0  0  0  0
    6.3160   -0.4950   -1.8140 C   0  0  0  0  0  0  0  0  0  0  0  0
    7.6920   -0.7930   -1.7390 N   0  0  0  0  0  0  0  0  0  0  0  0
    5.9620    0.0820   -2.8760 O   0  0  0  0  0  0  0  0  0  0  0  0
    5.9710   -1.4300    0.4640 C   0  0  0  0  0  0  0  0  0  0  0  0
    7.3580   -1.7600    0.6240 N   0  0  0  0  0  0  0  0  0  0  0  0
    5.2600   -1.7000    1.4430 O   0  0  0  0  0  0  0  0  0  0  0  0
  1  2  3  0
  2  3  1  0
  3  4  1  0
  3 28  2  3
  4  5  2  3
  5  6  1  0
  6  7  2  3
  7  8  1  0
  7 19  1  0
  8  9  2  3
  9 10  1  0
  9 11  1  0
 11 12  2  0
 11 18  1  0
 12 13  1  0
 13 14  2  0
 15 14  1  6
 14 18  1  0
 15 16  1  0
 15 17  1  0
 16 17  1  0
 19 20  2  0
 19 27  1  0
 20 21  1  0
 21 22  1  0
 21 23  2  0
 23 24  1  0
 24 25  1  0
 24 27  2  0
 25 26  2  0
 28 29  1  0
 28 32  1  0
 29 30  1  0
 29 31  2  0
 32 33  1  0
 32 34  2  0
M  END
