
     RDKit          3D

 33 36  0  0  0  0  0  0  0  0999 V2000
   -3.4100   -5.3380    1.5350 C   0  0  0  0  0  0  0  0  0  0  0  0
   -2.9200   -3.9450    1.3720 C   0  0  0  0  0  0  0  0  0  0  0  0
   -2.1620   -3.3880    2.3730 C   0  0  0  0  0  0  0  0  0  0  0  0
   -1.7180   -2.1300    2.2290 N   0  0  0  0  0  0  0  0  0  0  0  0
   -1.9860   -1.4170    1.1600 N   0  0  0  0  0  0  0  0  0  0  0  0
   -2.7270   -1.9470    0.1680 C   0  0  0  0  0  0  0  0  0  0  0  0
   -3.0090   -1.1090   -1.0270 C   0  0  0  0  0  0  0  0  0  0  0  0
   -2.2170    0.0310   -1.0990 O   0  0  0  0  0  0  0  0  0  0  0  0
   -0.8330    0.0300   -1.1870 C   0  0  0  0  0  0  0  0  0  0  0  0
   -0.1270   -1.1520   -1.2200 C   0  0  0  0  0  0  0  0  0  0  0  0
    1.2720   -1.1730   -1.3080 C   0  0  0  0  0  0  0  0  0  0  0  0
    2.0060   -0.0150   -1.3640 C   0  0  0  0  0  0  0  0  0  0  0  0
    3.4260    0.0320   -1.4200 N   0  0  0  0  0  0  0  0  0  0  0  0
    4.3280   -0.8160   -0.7680 C   0  0  0  0  0  0  0  0  0  0  0  0
    3.9370   -1.6850    0.2130 C   0  0  0  0  0  0  0  0  0  0  0  0
    4.8670   -2.4830    0.8590 C   0  0  0  0  0  0  0  0  0  0  0  0
    4.3430   -3.5930    2.1140 Cl  0  0  0  0  0  0  0  0  0  0  0  0
    6.1990   -2.4320    0.5460 C   0  0  0  0  0  0  0  0  0  0  0  0
    7.1180   -3.2210    1.1850 F   0  0  0  0  0  0  0  0  0  0  0  0
    6.5700   -1.5510   -0.4410 C   0  0  0  0  0  0  0  0  0  0  0  0
    5.6770   -0.7530   -1.0970 C   0  0  0  0  0  0  0  0  0  0  0  0
    6.1160    0.1050   -2.0730 F   0  0  0  0  0  0  0  0  0  0  0  0
    1.2660    1.1780   -1.3290 C   0  0  0  0  0  0  0  0  0  0  0  0
   -0.1040    1.2060   -1.2440 C   0  0  0  0  0  0  0  0  0  0  0  0
   -0.7960    2.4070   -1.2120 O   0  0  0  0  0  0  0  0  0  0  0  0
   -1.0260    2.9560    0.0640 C   0  0  0  0  0  0  0  0  0  0  0  0
   -0.6140    2.3620    1.0710 O   0  0  0  0  0  0  0  0  0  0  0  0
   -1.7410    4.2140    0.2250 C   0  0  0  0  0  0  0  0  0  0  0  0
   -2.0050    4.8050    1.3620 C   0  0  0  0  0  0  0  0  0  0  0  0
   -2.7180    6.0080    1.1140 N   0  0  0  0  0  0  0  0  0  0  0  0
   -3.2940    5.9090   -0.2420 C   0  0  0  0  0  0  0  0  0  0  0  0
   -2.2720    5.0150   -0.8920 C   0  0  0  0  0  0  0  0  0  0  0  0
   -3.1870   -3.2050    0.2820 N   0  0  0  0  0  0  0  0  0  0  0  0
  1  2  1  0
  2  3  2  0
  2 33  1  0
  3  4  1  0
  4  5  2  0
  5  6  1  0
  6  7  1  0
  6 33  2  0
  7  8  1  0
  8  9  1  0
  9 10  2  0
  9 24  1  0
 10 11  1  0
 11 12  2  0
 12 13  1  0
 12 23  1  0
 13 14  1  0
 14 15  2  0
 14 21  1  0
 15 16  1  0
 16 17  1  0
 16 18  2  0
 18 19  1  0
 18 20  1  0
 20 21  2  0
 21 22  1  0
 23 24  2  0
 24 25  1  0
 25 26  1  0
 26 27  2  0
 26 28  1  0
 28 29  2  0
 28 32  1  0
 29 30  1  0
 30 31  1  0
 31 32  1  0
M  END
