
     RDKit          3D

 34 36  0  0  0  0  0  0  0  0999 V2000
   -4.9660    0.8520    2.6750 O   0  0  0  0  0  0  0  0  0  0  0  0
   -5.5120    0.4750    1.4290 C   0  0  0  0  0  0  0  0  0  0  0  0
   -4.9180    1.3180    0.3250 C   0  0  1  0  0  0  0  0  0  0  0  0
   -3.5580    1.1980    0.2220 O   0  0  0  0  0  0  0  0  0  0  0  0
   -3.1310    0.0170   -0.3490 C   0  0  2  0  0  0  0  0  0  0  0  0
   -1.7370    0.0480   -0.3900 O   0  0  0  0  0  0  0  0  0  0  0  0
   -1.1640   -0.9490    0.4080 C   0  0  1  0  0  0  0  0  0  0  0  0
   -0.2490   -1.8170   -0.3830 C   0  0  2  0  0  0  0  0  0  0  0  0
   -0.1720   -3.1700    0.3480 C   0  0  0  0  0  0  0  0  0  0  0  0
    0.4900   -3.0600    1.5680 O   0  0  0  0  0  0  0  0  0  0  0  0
    1.0110   -1.3990   -0.5970 O   0  0  0  0  0  0  0  0  0  0  0  0
    1.6340   -0.6040    0.3220 C   0  0  1  0  0  0  0  0  0  0  0  0
    2.7610    0.0270   -0.1360 O   0  0  0  0  0  0  0  0  0  0  0  0
    3.9530   -0.2810    0.4720 C   0  0  2  0  0  0  0  0  0  0  0  0
    4.8440    0.8710    0.8230 C   0  0  2  0  0  0  0  0  0  0  0  0
    4.8320    1.3020    2.2390 C   0  0  0  0  0  0  0  0  0  0  0  0
    5.7920    2.3260    2.4190 O   0  0  0  0  0  0  0  0  0  0  0  0
    4.5420    1.8860   -0.0710 O   0  0  0  0  0  0  0  0  0  0  0  0
    4.5850    1.4990   -1.3820 C   0  0  2  0  0  0  0  0  0  0  0  0
    3.3380    1.8520   -1.9430 O   0  0  0  0  0  0  0  0  0  0  0  0
    4.9570    0.1260   -1.7020 C   0  0  1  0  0  0  0  0  0  0  0  0
    6.3140    0.0460   -2.1020 O   0  0  0  0  0  0  0  0  0  0  0  0
    4.7320   -0.9450   -0.6950 C   0  0  2  0  0  0  0  0  0  0  0  0
    3.9600   -1.9930   -1.1380 O   0  0  0  0  0  0  0  0  0  0  0  0
    0.7310    0.4660    0.8920 C   0  0  2  0  0  0  0  0  0  0  0  0
    1.3490    1.3530    1.7270 O   0  0  0  0  0  0  0  0  0  0  0  0
   -0.4430   -0.2460    1.5360 C   0  0  1  0  0  0  0  0  0  0  0  0
   -1.2670    0.7560    2.0610 O   0  0  0  0  0  0  0  0  0  0  0  0
   -3.6490   -0.1870   -1.7490 C   0  0  1  0  0  0  0  0  0  0  0  0
   -4.0480   -1.5300   -1.8490 O   0  0  0  0  0  0  0  0  0  0  0  0
   -4.7520    0.7660   -2.1120 C   0  0  1  0  0  0  0  0  0  0  0  0
   -5.5240    0.1680   -3.1070 O   0  0  0  0  0  0  0  0  0  0  0  0
   -5.6620    1.0790   -0.9520 C   0  0  2  0  0  0  0  0  0  0  0  0
   -6.4540    2.1640   -1.3260 O   0  0  0  0  0  0  0  0  0  0  0  0
  1  2  1  0
  3  2  1  1
  3  4  1  0
  3 33  1  0
  4  5  1  0
  5  6  1  6
  5 29  1  0
  7  6  1  6
  7  8  1  0
  7 27  1  0
  8  9  1  1
  8 11  1  0
  9 10  1  0
 11 12  1  0
 12 13  1  6
 12 25  1  0
 14 13  1  6
 14 15  1  0
 14 23  1  0
 15 16  1  1
 15 18  1  0
 16 17  1  0
 18 19  1  0
 19 20  1  1
 19 21  1  0
 21 22  1  1
 21 23  1  0
 23 24  1  6
 25 26  1  1
 25 27  1  0
 27 28  1  6
 29 30  1  1
 29 31  1  0
 31 32  1  6
 31 33  1  0
 33 34  1  6
M  END
