
     RDKit          3D

 34 37  0  0  0  0  0  0  0  0999 V2000
   -2.4530   -2.7500    0.9760 O   0  0  0  0  0  0  0  0  0  0  0  0
   -1.8540   -1.9390    0.1950 C   0  0  0  0  0  0  0  0  0  0  0  0
   -0.4760   -1.7220    0.4390 N   0  0  0  0  0  0  0  0  0  0  0  0
    0.2880   -2.3250    1.4700 C   0  0  0  0  0  0  0  0  0  0  0  0
   -0.1120   -3.2260    2.4370 C   0  0  0  0  0  0  0  0  0  0  0  0
    0.9950   -3.5330    3.2280 C   0  0  0  0  0  0  0  0  0  0  0  0
    2.0020   -2.8280    2.7300 N   0  0  0  0  0  0  0  0  0  0  0  0
    1.6060   -2.1050    1.6870 N   0  0  0  0  0  0  0  0  0  0  0  0
    2.4010   -1.2290    0.8990 C   0  0  0  0  0  0  0  0  0  0  0  0
    3.0810   -1.6760   -0.2150 C   0  0  0  0  0  0  0  0  0  0  0  0
    3.8550   -0.8380   -0.9870 C   0  0  0  0  0  0  0  0  0  0  0  0
    3.9780    0.5060   -0.6630 C   0  0  0  0  0  0  0  0  0  0  0  0
    4.7690    1.3200   -1.5040 N   0  0  0  0  0  0  0  0  0  0  0  0
    5.2690    2.6210   -1.1360 C   0  0  0  0  0  0  0  0  0  0  0  0
    6.3620    2.4760   -0.0980 C   0  0  1  0  0  0  0  0  0  0  0  0
    6.8470    3.7170    0.2690 F   0  0  0  0  0  0  0  0  0  0  0  0
    5.9680    1.8230    1.0390 F   0  0  0  0  0  0  0  0  0  0  0  0
    7.4540    1.8150   -0.6850 F   0  0  0  0  0  0  0  0  0  0  0  0
    3.3020    0.9590    0.4480 C   0  0  0  0  0  0  0  0  0  0  0  0
    2.5190    0.0970    1.2240 C   0  0  0  0  0  0  0  0  0  0  0  0
   -2.5720   -1.3090   -0.8520 N   0  0  0  0  0  0  0  0  0  0  0  0
   -1.9180   -0.3860   -1.7380 C   0  0  0  0  0  0  0  0  0  0  0  0
   -1.9700    1.0230   -1.2710 C   0  0  0  0  0  0  0  0  0  0  0  0
   -1.0510    1.6800   -0.4910 C   0  0  0  0  0  0  0  0  0  0  0  0
   -1.5540    2.9730   -0.3350 C   0  0  0  0  0  0  0  0  0  0  0  0
   -2.7460    3.0320   -1.0240 C   0  0  0  0  0  0  0  0  0  0  0  0
   -2.9350    1.8650   -1.5490 O   0  0  0  0  0  0  0  0  0  0  0  0
   -3.9670   -1.5990   -1.0260 C   0  0  0  0  0  0  0  0  0  0  0  0
   -4.8570   -0.7020   -0.2690 C   0  0  0  0  0  0  0  0  0  0  0  0
   -6.2330   -0.7980   -0.3140 C   0  0  0  0  0  0  0  0  0  0  0  0
   -6.7670    0.1880    0.5090 C   0  0  0  0  0  0  0  0  0  0  0  0
   -5.6620    0.8430    1.0190 C   0  0  0  0  0  0  0  0  0  0  0  0
   -5.8100    2.1990    2.1360 Cl  0  0  0  0  0  0  0  0  0  0  0  0
   -4.5930    0.2930    0.5420 O   0  0  0  0  0  0  0  0  0  0  0  0
  1  2  2  0
  2  3  1  0
  2 21  1  0
  3  4  1  0
  4  5  2  0
  4  8  1  0
  5  6  1  0
  6  7  2  0
  7  8  1  0
  8  9  1  0
  9 10  2  0
  9 20  1  0
 10 11  1  0
 11 12  2  0
 12 13  1  0
 12 19  1  0
 13 14  1  0
 14 15  1  0
 15 16  1  1
 15 17  1  0
 15 18  1  0
 19 20  2  0
 21 22  1  0
 21 28  1  0
 22 23  1  0
 23 24  2  0
 23 27  1  0
 24 25  1  0
 25 26  2  0
 26 27  1  0
 28 29  1  0
 29 30  2  0
 29 34  1  0
 30 31  1  0
 31 32  2  0
 32 33  1  0
 32 34  1  0
M  END
