
     RDKit          3D

 34 36  0  0  0  0  0  0  0  0999 V2000
   -6.8820    0.8660   -1.5250 C   0  0  0  0  0  0  0  0  0  0  0  0
   -5.5710    0.5210   -1.9070 O   0  0  0  0  0  0  0  0  0  0  0  0
   -4.5970    0.3100   -0.9300 C   0  0  0  0  0  0  0  0  0  0  0  0
   -4.9130    0.4380    0.4070 C   0  0  0  0  0  0  0  0  0  0  0  0
   -3.9370    0.2250    1.3480 C   0  0  0  0  0  0  0  0  0  0  0  0
   -2.6610   -0.1110    0.9740 C   0  0  0  0  0  0  0  0  0  0  0  0
   -1.6700   -0.3220    2.0110 C   0  0  0  0  0  0  0  0  0  0  0  0
   -1.8500   -1.3020    2.9610 C   0  0  0  0  0  0  0  0  0  0  0  0
   -0.9320   -1.5320    3.9690 C   0  0  0  0  0  0  0  0  0  0  0  0
   -1.1510   -2.7780    5.1820 Cl  0  0  0  0  0  0  0  0  0  0  0  0
    0.2160   -0.7440    4.0270 C   0  0  0  0  0  0  0  0  0  0  0  0
    1.1640   -0.9360    5.0180 O   0  0  0  0  0  0  0  0  0  0  0  0
    0.3640    0.2040    3.0870 N   0  0  0  0  0  0  0  0  0  0  0  0
   -0.5110    0.4490    2.0980 C   0  0  0  0  0  0  0  0  0  0  0  0
   -0.3650    1.4680    1.0890 C   0  0  0  0  0  0  0  0  0  0  0  0
   -1.2790    2.5250    1.0900 C   0  0  0  0  0  0  0  0  0  0  0  0
   -1.1810    3.5200    0.1410 C   0  0  0  0  0  0  0  0  0  0  0  0
   -2.2930    4.8690    0.0880 Cl  0  0  0  0  0  0  0  0  0  0  0  0
   -0.1700    3.4760   -0.8210 C   0  0  0  0  0  0  0  0  0  0  0  0
    0.7000    2.4240   -0.7810 C   0  0  0  0  0  0  0  0  0  0  0  0
    0.6420    1.4000    0.1510 C   0  0  0  0  0  0  0  0  0  0  0  0
    1.6170    0.3050    0.1140 C   0  0  0  0  0  0  0  0  0  0  0  0
    2.0740   -0.2120    1.1490 O   0  0  0  0  0  0  0  0  0  0  0  0
    2.0670   -0.1930   -1.1340 N   0  0  0  0  0  0  0  0  0  0  0  0
    3.0280   -1.2690   -1.2810 C   0  0  0  0  0  0  0  0  0  0  0  0
    4.3610   -0.9310   -0.6410 C   0  0  0  0  0  0  0  0  0  0  0  0
    5.3210   -1.9750   -0.7730 N   0  0  0  0  0  0  0  0  0  0  0  0
    5.8070   -2.2330   -2.0880 C   0  0  0  0  0  0  0  0  0  0  0  0
    6.6230   -1.0660   -2.5140 C   0  0  0  0  0  0  0  0  0  0  0  0
    7.3670   -0.4660   -1.6670 N   0  0  0  0  0  0  0  0  0  0  0  0
   -2.3800   -0.2300   -0.3670 C   0  0  0  0  0  0  0  0  0  0  0  0
   -3.3290   -0.0260   -1.3470 C   0  0  0  0  0  0  0  0  0  0  0  0
   -3.0950   -0.1330   -2.7090 O   0  0  0  0  0  0  0  0  0  0  0  0
   -1.7860   -0.4770   -3.1230 C   0  0  0  0  0  0  0  0  0  0  0  0
  1  2  1  0
  2  3  1  0
  3  4  2  0
  3 32  1  0
  4  5  1  0
  5  6  2  0
  6  7  1  0
  6 31  1  0
  7  8  2  0
  7 14  1  0
  8  9  1  0
  9 10  1  0
  9 11  2  0
 11 12  1  0
 11 13  1  0
 13 14  2  0
 14 15  1  0
 15 16  2  0
 15 21  1  0
 16 17  1  0
 17 18  1  0
 17 19  2  0
 19 20  1  0
 20 21  2  0
 21 22  1  0
 22 23  2  0
 22 24  1  0
 24 25  1  0
 25 26  1  0
 26 27  1  0
 27 28  1  0
 28 29  1  0
 29 30  2  0
 31 32  2  0
 32 33  1  0
 33 34  1  0
M  END
