
     RDKit          3D

 37 40  0  0  0  0  0  0  0  0999 V2000
   -5.0020   -2.2040   -1.5640 C   0  0  0  0  0  0  0  0  0  0  0  0
   -6.2990   -1.7140   -1.2830 O   0  0  0  0  0  0  0  0  0  0  0  0
   -6.5690   -0.6870   -0.4180 C   0  0  0  0  0  0  0  0  0  0  0  0
   -7.8330   -0.2500   -0.1790 C   0  0  0  0  0  0  0  0  0  0  0  0
   -8.1070    0.7760    0.6860 C   0  0  0  0  0  0  0  0  0  0  0  0
   -9.5160    1.2220    0.9170 C   0  0  0  0  0  0  0  0  0  0  0  0
   -7.0480    1.3720    1.3230 C   0  0  0  0  0  0  0  0  0  0  0  0
   -7.3210    2.4110    2.1980 O   0  0  0  0  0  0  0  0  0  0  0  0
   -5.7390    0.9790    1.1270 C   0  0  0  0  0  0  0  0  0  0  0  0
   -4.6380    1.6180    1.8380 C   0  0  0  0  0  0  0  0  0  0  0  0
   -3.3160    1.1140    1.4790 N   0  0  0  0  0  0  0  0  0  0  0  0
   -2.7470    1.2750    0.2230 C   0  0  0  0  0  0  0  0  0  0  0  0
   -3.4860    1.9290   -0.6190 O   0  0  0  0  0  0  0  0  0  0  0  0
   -1.4560    0.8200   -0.2730 C   0  0  0  0  0  0  0  0  0  0  0  0
   -0.9330    1.1700   -1.9490 S   0  0  0  0  0  0  0  0  0  0  0  0
    0.6350    0.3630   -1.8390 C   0  0  0  0  0  0  0  0  0  0  0  0
    1.6270    0.2150   -2.7640 N   0  0  0  0  0  0  0  0  0  0  0  0
    2.7510   -0.4530   -2.4290 C   0  0  0  0  0  0  0  0  0  0  0  0
    3.6850   -0.6160   -3.2350 O   0  0  0  0  0  0  0  0  0  0  0  0
    2.8170   -0.9290   -1.2020 N   0  0  0  0  0  0  0  0  0  0  0  0
    4.0060   -1.6440   -0.8250 C   0  0  0  0  0  0  0  0  0  0  0  0
    4.1000   -2.9920   -0.9790 C   0  0  0  0  0  0  0  0  0  0  0  0
    5.2660   -3.6530   -0.6040 C   0  0  0  0  0  0  0  0  0  0  0  0
    6.3130   -2.9600   -0.0830 C   0  0  0  0  0  0  0  0  0  0  0  0
    6.2540   -1.5620    0.0930 C   0  0  0  0  0  0  0  0  0  0  0  0
    7.4470   -0.9470    0.7080 C   0  0  0  0  0  0  0  0  0  0  0  0
    5.1060   -0.9390   -0.2820 C   0  0  0  0  0  0  0  0  0  0  0  0
    4.8810    0.4910   -0.1370 C   0  0  0  0  0  0  0  0  0  0  0  0
    5.9370    1.3350    0.3140 N   0  0  0  0  0  0  0  0  0  0  0  0
    5.3380    2.6750    0.6070 C   0  0  0  0  0  0  0  0  0  0  0  0
    6.8550    1.6640   -0.7950 C   0  0  0  0  0  0  0  0  0  0  0  0
    1.8560   -0.8030   -0.2580 C   0  0  0  0  0  0  0  0  0  0  0  0
    2.0870   -1.3180    0.8570 O   0  0  0  0  0  0  0  0  0  0  0  0
    0.6660   -0.1090   -0.5770 C   0  0  0  0  0  0  0  0  0  0  0  0
   -0.4060    0.1250    0.2270 C   0  0  0  0  0  0  0  0  0  0  0  0
   -0.5050   -0.3660    1.6760 C   0  0  0  0  0  0  0  0  0  0  0  0
   -5.5210   -0.0530    0.2530 C   0  0  0  0  0  0  0  0  0  0  0  0
  1  2  1  0
  2  3  1  0
  3  4  2  0
  3 37  1  0
  4  5  1  0
  5  6  1  0
  5  7  2  0
  7  8  1  0
  7  9  1  0
  9 10  1  0
  9 37  2  0
 10 11  1  0
 11 12  1  0
 12 13  2  0
 12 14  1  0
 14 15  1  0
 14 35  2  0
 15 16  1  0
 16 17  1  0
 16 34  2  0
 17 18  1  0
 18 19  2  0
 18 20  1  0
 20 21  1  0
 20 32  1  0
 21 22  2  0
 21 27  1  0
 22 23  1  0
 23 24  2  0
 24 25  1  0
 25 26  1  0
 25 27  2  0
 27 28  1  0
 28 29  1  0
 29 30  1  0
 29 31  1  0
 32 33  2  0
 32 34  1  0
 34 35  1  0
 35 36  1  0
M  END
