
     RDKit          3D

 37 42  0  0  0  0  0  0  0  0999 V2000
    7.2630    3.2990   -0.7310 C   0  0  0  0  0  0  0  0  0  0  0  0
    6.7510    2.0860   -0.0920 N   0  0  0  0  0  0  0  0  0  0  0  0
    7.4520    1.9680    1.1720 C   0  0  0  0  0  0  0  0  0  0  0  0
    7.0060    0.6950    1.8320 C   0  0  0  0  0  0  0  0  0  0  0  0
    5.5440    0.8540    2.1700 C   0  0  0  0  0  0  0  0  0  0  0  0
    4.7070    1.2570    1.0020 C   0  0  2  0  0  0  0  0  0  0  0  0
    4.2880    0.0540    0.3080 N   0  0  0  0  0  0  0  0  0  0  0  0
    2.9390   -0.3600    0.2150 C   0  0  0  0  0  0  0  0  0  0  0  0
    2.1150    0.3910    0.7780 O   0  0  0  0  0  0  0  0  0  0  0  0
    2.4720   -1.5600   -0.4720 C   0  0  0  0  0  0  0  0  0  0  0  0
    3.4250   -2.4340   -1.0230 C   0  0  0  0  0  0  0  0  0  0  0  0
    3.0480   -3.6020   -1.6380 C   0  0  0  0  0  0  0  0  0  0  0  0
    1.7540   -3.8840   -1.7000 N   0  0  0  0  0  0  0  0  0  0  0  0
    0.7960   -3.1110   -1.2060 C   0  0  0  0  0  0  0  0  0  0  0  0
    1.1570   -1.9070   -0.5690 C   0  0  0  0  0  0  0  0  0  0  0  0
    0.1220   -1.0500   -0.1260 N   0  0  0  0  0  0  0  0  0  0  0  0
   -1.1760   -1.5410    0.0950 C   0  0  0  0  0  0  0  0  0  0  0  0
   -2.3120   -0.8010   -0.2090 C   0  0  0  0  0  0  0  0  0  0  0  0
   -3.5940   -1.2490    0.0480 C   0  0  0  0  0  0  0  0  0  0  0  0
   -4.7710   -0.4290   -0.2920 C   0  0  0  0  0  0  0  0  0  0  0  0
   -5.8750   -0.9680   -0.9140 C   0  0  0  0  0  0  0  0  0  0  0  0
   -6.9870   -0.2130   -1.2390 C   0  0  0  0  0  0  0  0  0  0  0  0
   -6.9780    1.1320   -0.9240 C   0  0  0  0  0  0  0  0  0  0  0  0
   -7.8870    2.1690   -1.0920 C   0  0  0  0  0  0  0  0  0  0  0  0
   -7.3350    3.3220   -0.5770 C   0  0  0  0  0  0  0  0  0  0  0  0
   -6.1150    3.0290   -0.0960 N   0  0  0  0  0  0  0  0  0  0  0  0
   -5.1970    3.9670    0.5340 C   0  0  0  0  0  0  0  0  0  0  0  0
   -5.8930    1.7120   -0.3010 C   0  0  0  0  0  0  0  0  0  0  0  0
   -4.8030    0.9120    0.0040 C   0  0  0  0  0  0  0  0  0  0  0  0
   -3.7610   -2.4910    0.6350 C   0  0  0  0  0  0  0  0  0  0  0  0
   -5.0340   -2.9010    0.8730 N   0  0  0  0  0  0  0  0  0  0  0  0
   -5.2000   -4.1100    1.4450 C   0  0  0  0  0  0  0  0  0  0  0  0
   -4.1230   -4.9050    1.7770 C   0  0  0  0  0  0  0  0  0  0  0  0
   -2.8690   -4.4440    1.5150 N   0  0  0  0  0  0  0  0  0  0  0  0
   -2.6700   -3.2420    0.9460 C   0  0  0  0  0  0  0  0  0  0  0  0
   -1.3900   -2.7630    0.6750 C   0  0  0  0  0  0  0  0  0  0  0  0
    5.3490    2.2630    0.1010 C   0  0  0  0  0  0  0  0  0  0  0  0
  1  2  1  0
  2  3  1  0
  2 37  1  0
  3  4  1  0
  4  5  1  0
  5  6  1  0
  6  7  1  6
  6 37  1  0
  7  8  1  0
  8  9  2  0
  8 10  1  0
 10 11  2  0
 10 15  1  0
 11 12  1  0
 12 13  2  0
 13 14  1  0
 14 15  2  0
 15 16  1  0
 16 17  1  0
 17 18  2  0
 17 36  1  0
 18 19  1  0
 19 20  1  0
 19 30  2  0
 20 21  2  0
 20 29  1  0
 21 22  1  0
 22 23  2  0
 23 24  1  0
 23 28  1  0
 24 25  2  0
 25 26  1  0
 26 27  1  0
 26 28  1  0
 28 29  2  0
 30 31  1  0
 30 35  1  0
 31 32  2  0
 32 33  1  0
 33 34  2  0
 34 35  1  0
 35 36  2  0
M  END
