
     RDKit          3D

 37 40  0  0  0  0  0  0  0  0999 V2000
    8.7620    0.6090   -1.3130 C   0  0  0  0  0  0  0  0  0  0  0  0
    7.3810    0.5550   -0.8240 C   0  0  0  0  0  0  0  0  0  0  0  0
    6.8110    1.6950   -0.3090 C   0  0  0  0  0  0  0  0  0  0  0  0
    5.5230    1.6830    0.1620 C   0  0  0  0  0  0  0  0  0  0  0  0
    4.7930    0.5100    0.1180 C   0  0  0  0  0  0  0  0  0  0  0  0
    3.4530    0.5490    0.6070 N   0  0  0  0  0  0  0  0  0  0  0  0
    2.7020   -0.5130    1.0860 C   0  0  0  0  0  0  0  0  0  0  0  0
    3.2250   -1.6700    1.1270 O   0  0  0  0  0  0  0  0  0  0  0  0
    1.3360   -0.3990    1.5590 C   0  0  0  0  0  0  0  0  0  0  0  0
    0.8760   -1.3860    2.4520 C   0  0  0  0  0  0  0  0  0  0  0  0
   -0.3890   -1.2960    2.9610 C   0  0  0  0  0  0  0  0  0  0  0  0
   -1.2140   -0.2470    2.6030 C   0  0  0  0  0  0  0  0  0  0  0  0
   -2.5550   -0.2050    3.2220 C   0  0  0  0  0  0  0  0  0  0  0  0
   -3.7380   -1.3060    2.4510 S   0  0  0  0  0  0  0  0  0  0  0  0
   -4.1090   -0.8420    0.7730 C   0  0  0  0  0  0  0  0  0  0  0  0
   -3.3660   -1.3520   -0.2850 C   0  0  0  0  0  0  0  0  0  0  0  0
   -3.6530   -0.9950   -1.5820 C   0  0  0  0  0  0  0  0  0  0  0  0
   -2.8860   -1.5200   -2.7210 C   0  0  0  0  0  0  0  0  0  0  0  0
   -4.6970   -0.1130   -1.8520 C   0  0  0  0  0  0  0  0  0  0  0  0
   -5.0310    0.2880   -3.2310 C   0  0  0  0  0  0  0  0  0  0  0  0
   -5.4300    0.3900   -0.7860 C   0  0  0  0  0  0  0  0  0  0  0  0
   -5.1530    0.0380    0.5270 C   0  0  0  0  0  0  0  0  0  0  0  0
   -5.8910    0.5280    1.6970 C   0  0  0  0  0  0  0  0  0  0  0  0
   -6.9630    1.4920    1.3720 C   0  0  0  0  0  0  0  0  0  0  0  0
   -7.5990    1.9710    2.3750 O   0  0  0  0  0  0  0  0  0  0  0  0
   -7.2620    1.8570    0.0550 N   0  0  0  0  0  0  0  0  0  0  0  0
   -6.5210    1.3280   -1.0320 C   0  0  0  0  0  0  0  0  0  0  0  0
   -6.7980    1.6650   -2.2200 O   0  0  0  0  0  0  0  0  0  0  0  0
   -0.8100    0.7050    1.7590 N   0  0  0  0  0  0  0  0  0  0  0  0
   -1.6570    1.8370    1.3790 C   0  0  0  0  0  0  0  0  0  0  0  0
    0.4530    0.6010    1.2610 C   0  0  0  0  0  0  0  0  0  0  0  0
    0.8000    1.5120    0.4670 O   0  0  0  0  0  0  0  0  0  0  0  0
    5.3800   -0.6240   -0.4020 C   0  0  0  0  0  0  0  0  0  0  0  0
    6.6600   -0.6280   -0.8740 C   0  0  0  0  0  0  0  0  0  0  0  0
    7.3260   -1.7480   -1.4210 N   0  0  0  0  0  0  0  0  0  0  0  0
    6.7850   -3.0380   -1.6120 C   0  0  0  0  0  0  0  0  0  0  0  0
    5.6130   -3.2880   -1.2950 O   0  0  0  0  0  0  0  0  0  0  0  0
  1  2  1  0
  2  3  2  0
  2 34  1  0
  3  4  1  0
  4  5  2  0
  5  6  1  0
  5 33  1  0
  6  7  1  0
  7  8  2  0
  7  9  1  0
  9 10  2  0
  9 31  1  0
 10 11  1  0
 11 12  2  0
 12 13  1  0
 12 29  1  0
 13 14  1  0
 14 15  1  0
 15 16  2  0
 15 22  1  0
 16 17  1  0
 17 18  1  0
 17 19  2  0
 19 20  1  0
 19 21  1  0
 21 22  2  0
 21 27  1  0
 22 23  1  0
 23 24  1  0
 24 25  2  0
 24 26  1  0
 26 27  1  0
 27 28  2  0
 29 30  1  0
 29 31  1  0
 31 32  2  0
 33 34  2  0
 34 35  1  0
 35 36  1  0
 36 37  2  0
M  END
