
     RDKit          3D

 37 40  0  0  0  0  0  0  0  0999 V2000
   10.4060   -1.0270    0.6100 C   0  0  0  0  0  0  0  0  0  0  0  0
    9.0320   -0.4750    0.7040 C   0  0  0  0  0  0  0  0  0  0  0  0
    8.0250   -0.9140   -0.0050 C   0  0  0  0  0  0  0  0  0  0  0  0
    8.2300   -1.9940   -0.9390 C   0  0  0  0  0  0  0  0  0  0  0  0
    7.1380   -2.5320   -1.7680 C   0  0  0  0  0  0  0  0  0  0  0  0
    9.3640   -2.5050   -1.0660 O   0  0  0  0  0  0  0  0  0  0  0  0
    6.7130   -0.3190    0.1350 C   0  0  0  0  0  0  0  0  0  0  0  0
    5.7900   -0.7970   -0.5710 O   0  0  0  0  0  0  0  0  0  0  0  0
    6.3750    0.7430    0.9880 N   0  0  0  0  0  0  0  0  0  0  0  0
    5.1000    1.3450    1.1570 C   0  0  0  0  0  0  0  0  0  0  0  0
    5.0080    2.6210    1.7330 C   0  0  0  0  0  0  0  0  0  0  0  0
    3.7960    3.2350    1.9320 C   0  0  0  0  0  0  0  0  0  0  0  0
    2.6320    2.5420    1.5390 C   0  0  0  0  0  0  0  0  0  0  0  0
    2.6710    1.3140    0.9830 C   0  0  0  0  0  0  0  0  0  0  0  0
    1.5290    0.5900    0.5930 N   0  0  0  0  0  0  0  0  0  0  0  0
    0.2060    0.9220    0.8640 C   0  0  0  0  0  0  0  0  0  0  0  0
   -0.0390    1.9950    1.5300 O   0  0  0  0  0  0  0  0  0  0  0  0
   -0.9810    0.1580    0.4580 C   0  0  0  0  0  0  0  0  0  0  0  0
   -2.2760    0.6740    0.3200 C   0  0  0  0  0  0  0  0  0  0  0  0
   -3.1180   -0.3160   -0.1130 C   0  0  0  0  0  0  0  0  0  0  0  0
   -4.5590   -0.1630   -0.3780 C   0  0  0  0  0  0  0  0  0  0  0  0
   -5.1700    1.0650   -0.1980 C   0  0  0  0  0  0  0  0  0  0  0  0
   -6.5130    1.1750   -0.4560 C   0  0  0  0  0  0  0  0  0  0  0  0
   -7.1560    2.5130   -0.2530 C   0  0  0  0  0  0  0  0  0  0  0  0
   -7.9630    2.5580    1.0210 C   0  0  0  0  0  0  0  0  0  0  0  0
   -7.3010    0.1010   -0.8940 C   0  0  0  0  0  0  0  0  0  0  0  0
   -6.6910   -1.0780   -1.0620 C   0  0  0  0  0  0  0  0  0  0  0  0
   -5.3140   -1.2050   -0.8010 C   0  0  0  0  0  0  0  0  0  0  0  0
   -7.5450   -2.2030   -1.5220 C   0  0  0  0  0  0  0  0  0  0  0  0
   -9.0320   -1.3490   -1.9830 S   0  0  2  0  0  0  0  0  0  0  0  0
  -10.2650   -1.9960   -1.4190 O   0  0  0  0  0  0  0  0  0  0  0  0
   -9.1240   -1.1660   -3.4680 O   0  0  0  0  0  0  0  0  0  0  0  0
   -8.6860    0.1470   -1.1800 N   0  0  0  0  0  0  0  0  0  0  0  0
   -2.3750   -1.4130   -0.2410 N   0  0  0  0  0  0  0  0  0  0  0  0
   -1.0660   -1.1510    0.1020 C   0  0  0  0  0  0  0  0  0  0  0  0
   -0.0170   -2.2020    0.0770 C   0  0  0  0  0  0  0  0  0  0  0  0
    3.9510    0.7210    0.7970 C   0  0  0  0  0  0  0  0  0  0  0  0
  1  2  1  0
  2  3  2  3
  3  4  1  0
  3  7  1  0
  4  5  1  0
  4  6  2  0
  7  8  2  0
  7  9  1  0
  9 10  1  0
 10 11  2  0
 10 37  1  0
 11 12  1  0
 12 13  2  0
 13 14  1  0
 14 15  1  0
 14 37  2  0
 15 16  1  0
 16 17  2  0
 16 18  1  0
 18 19  1  0
 18 35  2  0
 19 20  2  0
 20 21  1  0
 20 34  1  0
 21 22  2  0
 21 28  1  0
 22 23  1  0
 23 24  1  0
 23 26  2  0
 24 25  1  0
 26 27  1  0
 26 33  1  0
 27 28  2  0
 27 29  1  0
 30 29  1  6
 30 31  2  0
 30 32  2  0
 30 33  1  0
 34 35  1  0
 35 36  1  0
M  END
