
     RDKit          3D

 37 40  0  0  0  0  0  0  0  0999 V2000
   -3.9220   -1.2500    4.4780 C   0  0  0  0  0  0  0  0  0  0  0  0
   -4.5820   -2.2440    3.9400 C   0  0  0  0  0  0  0  0  0  0  0  0
   -4.2890   -2.6840    2.5900 C   0  0  0  0  0  0  0  0  0  0  0  0
   -4.9440   -3.6690    2.0170 C   0  0  0  0  0  0  0  0  0  0  0  0
   -6.0350   -4.4010    2.7180 C   0  0  0  0  0  0  0  0  0  0  0  0
   -3.2190   -2.0600    1.8340 N   0  0  0  0  0  0  0  0  0  0  0  0
   -3.5210   -1.2140    0.7490 C   0  0  0  0  0  0  0  0  0  0  0  0
   -4.8510   -1.0150    0.4680 N   0  0  0  0  0  0  0  0  0  0  0  0
   -5.2890   -0.2380   -0.5170 C   0  0  0  0  0  0  0  0  0  0  0  0
   -4.3480    0.3960   -1.2900 C   0  0  0  0  0  0  0  0  0  0  0  0
   -2.9850    0.2160   -1.0320 C   0  0  0  0  0  0  0  0  0  0  0  0
   -2.5420   -0.5990   -0.0010 C   0  0  0  0  0  0  0  0  0  0  0  0
   -1.1020   -0.8160    0.2590 C   0  0  0  0  0  0  0  0  0  0  0  0
   -0.7150   -1.5900    1.1540 O   0  0  0  0  0  0  0  0  0  0  0  0
   -0.1100   -0.1600   -0.4930 N   0  0  0  0  0  0  0  0  0  0  0  0
    1.2950   -0.3130   -0.4120 C   0  0  0  0  0  0  0  0  0  0  0  0
    2.3630    1.0400   -0.7430 S   0  0  0  0  0  0  0  0  0  0  0  0
    3.9130    0.1610   -0.5220 C   0  0  0  0  0  0  0  0  0  0  0  0
    5.2330    0.7400   -0.6530 C   0  0  0  0  0  0  0  0  0  0  0  0
    6.2000   -0.0320   -0.4740 O   0  0  0  0  0  0  0  0  0  0  0  0
    5.4830    2.0600   -0.9570 O   0  0  0  0  0  0  0  0  0  0  0  0
    6.7650    2.5700   -1.0790 C   0  0  0  0  0  0  0  0  0  0  0  0
    7.3620    2.5600   -2.2540 C   0  0  0  0  0  0  0  0  0  0  0  0
    8.7120    3.0820   -2.4450 C   0  0  0  0  0  0  0  0  0  0  0  0
    9.3470    3.5820   -1.3920 C   0  0  0  0  0  0  0  0  0  0  0  0
   10.7310    4.1230   -1.5650 C   0  0  0  0  0  0  0  0  0  0  0  0
    8.7350    3.5950   -0.1740 O   0  0  0  0  0  0  0  0  0  0  0  0
    7.4360    3.1170    0.1200 C   0  0  0  0  0  0  0  0  0  0  0  0
    3.4910   -1.0640   -0.2270 C   0  0  0  0  0  0  0  0  0  0  0  0
    2.1680   -1.3570   -0.1640 C   0  0  0  0  0  0  0  0  0  0  0  0
    1.7040   -2.7880   -0.0980 C   0  0  0  0  0  0  0  0  0  0  0  0
    2.6300   -3.8030    0.3500 N   0  0  0  0  0  0  0  0  0  0  0  0
    0.5670   -3.1360   -0.4070 O   0  0  0  0  0  0  0  0  0  0  0  0
   -4.8510    1.2590   -2.3840 C   0  0  0  0  0  0  0  0  0  0  0  0
   -5.8580    2.2010   -1.7490 C   0  0  0  0  0  0  0  0  0  0  0  0
   -6.8550    1.5390   -0.8640 C   0  0  0  0  0  0  0  0  0  0  0  0
   -6.7040    0.0180   -0.8680 C   0  0  0  0  0  0  0  0  0  0  0  0
  1  2  2  0
  2  3  1  0
  3  4  2  3
  3  6  1  0
  4  5  1  0
  6  7  1  0
  7  8  2  0
  7 12  1  0
  8  9  1  0
  9 10  2  0
  9 37  1  0
 10 11  1  0
 10 34  1  0
 11 12  2  0
 12 13  1  0
 13 14  2  0
 13 15  1  0
 15 16  1  0
 16 17  1  0
 16 30  2  0
 17 18  1  0
 18 19  1  0
 18 29  2  0
 19 20  2  0
 19 21  1  0
 21 22  1  0
 22 23  2  0
 22 28  1  0
 23 24  1  0
 24 25  2  0
 25 26  1  0
 25 27  1  0
 27 28  1  0
 29 30  1  0
 30 31  1  0
 31 32  1  0
 31 33  2  0
 34 35  1  0
 35 36  1  0
 36 37  1  0
M  END
