
     RDKit          3D

 29 32  0  0  0  0  0  0  0  0999 V2000
    4.8850   -1.0250   -0.7590 O   0  0  0  0  0  0  0  0  0  0  0  0
    5.1260    0.0790   -1.3500 C   0  0  0  0  0  0  0  0  0  0  0  0
    6.4060    0.5790   -1.2320 O   0  0  0  0  0  0  0  0  0  0  0  0
    4.0370    0.7390   -2.1080 C   0  0  0  0  0  0  0  0  0  0  0  0
    3.1120    1.5560   -1.2260 C   0  0  0  0  0  0  0  0  0  0  0  0
    2.4780    0.7540   -0.2250 N   0  0  0  0  0  0  0  0  0  0  0  0
    1.3270    0.1070   -0.3390 C   0  0  0  0  0  0  0  0  0  0  0  0
    1.0280   -0.5610    0.8300 C   0  0  0  0  0  0  0  0  0  0  0  0
    2.0660   -0.3020    1.7120 C   0  0  0  0  0  0  0  0  0  0  0  0
    2.2710   -0.7180    3.0090 C   0  0  0  0  0  0  0  0  0  0  0  0
    3.4040   -0.3140    3.6820 C   0  0  0  0  0  0  0  0  0  0  0  0
    4.2950    0.5090    2.9980 C   0  0  0  0  0  0  0  0  0  0  0  0
    4.0850    0.9200    1.7030 C   0  0  0  0  0  0  0  0  0  0  0  0
    2.9490    0.5130    1.0310 C   0  0  0  0  0  0  0  0  0  0  0  0
   -0.1940   -1.3560    0.9630 C   0  0  0  0  0  0  0  0  0  0  0  0
   -1.3720   -0.8420    0.1910 C   0  0  2  0  0  0  0  0  0  0  0  0
   -2.0920   -1.8550   -0.5130 N   0  0  0  0  0  0  0  0  0  0  0  0
   -3.7080   -2.0680   -0.0410 S   0  0  2  0  0  0  0  0  0  0  0  0
   -3.8590   -2.5270    1.3750 O   0  0  0  0  0  0  0  0  0  0  0  0
   -4.3080   -3.1520   -0.9250 O   0  0  0  0  0  0  0  0  0  0  0  0
   -4.6660   -0.6380   -0.2960 C   0  0  0  0  0  0  0  0  0  0  0  0
   -5.3180   -0.3930   -1.4790 C   0  0  0  0  0  0  0  0  0  0  0  0
   -6.0850    0.7220   -1.7200 C   0  0  0  0  0  0  0  0  0  0  0  0
   -6.1920    1.6470   -0.6830 C   0  0  0  0  0  0  0  0  0  0  0  0
   -6.9290    2.7610   -0.8560 F   0  0  0  0  0  0  0  0  0  0  0  0
   -5.5500    1.4330    0.5200 C   0  0  0  0  0  0  0  0  0  0  0  0
   -4.7900    0.3000    0.7180 C   0  0  0  0  0  0  0  0  0  0  0  0
   -1.0190    0.2390   -0.8060 C   0  0  0  0  0  0  0  0  0  0  0  0
    0.3400   -0.0250   -1.4440 C   0  0  0  0  0  0  0  0  0  0  0  0
  1  2  2  0
  2  3  1  0
  2  4  1  0
  4  5  1  0
  5  6  1  0
  6  7  1  0
  6 14  1  0
  7  8  2  0
  7 29  1  0
  8  9  1  0
  8 15  1  0
  9 10  2  0
  9 14  1  0
 10 11  1  0
 11 12  2  0
 12 13  1  0
 13 14  2  0
 15 16  1  0
 16 17  1  6
 16 28  1  0
 18 17  1  6
 18 19  2  0
 18 20  2  0
 18 21  1  0
 21 22  2  0
 21 27  1  0
 22 23  1  0
 23 24  2  0
 24 25  1  0
 24 26  1  0
 26 27  2  0
 28 29  1  0
M  END
