
     RDKit          3D

 30 32  0  0  0  0  0  0  0  0999 V2000
   -2.5150   -2.2380    0.9530 C   0  0  0  0  0  0  0  0  0  0  0  0
   -2.4460   -1.4920   -0.3630 C   0  0  1  0  0  0  0  0  0  0  0  0
   -3.1690   -0.1780   -0.3100 C   0  0  0  0  0  0  0  0  0  0  0  0
   -4.6070   -0.3340    0.0080 C   0  0  0  0  0  0  0  0  0  0  0  0
   -5.0540   -1.4890    0.1900 O   0  0  0  0  0  0  0  0  0  0  0  0
   -5.4880    0.7750    0.1130 N   0  0  0  0  0  0  0  0  0  0  0  0
   -6.8970    0.6410    0.4230 C   0  0  2  0  0  0  0  0  0  0  0  0
   -7.8140    1.6260   -0.2760 C   0  0  0  0  0  0  0  0  0  0  0  0
   -7.5690    1.7650    1.1850 C   0  0  0  0  0  0  0  0  0  0  0  0
   -1.0820   -1.2260   -0.7500 N   0  0  0  0  0  0  0  0  0  0  0  0
   -0.7190   -1.3700   -2.0350 C   0  0  0  0  0  0  0  0  0  0  0  0
    0.5690   -1.1300   -2.4680 C   0  0  0  0  0  0  0  0  0  0  0  0
    1.5020   -0.7400   -1.5880 N   0  0  0  0  0  0  0  0  0  0  0  0
    1.1660   -0.5860   -0.2860 C   0  0  0  0  0  0  0  0  0  0  0  0
    2.1770   -0.1720    0.6180 N   0  0  0  0  0  0  0  0  0  0  0  0
    3.5060    0.0780    0.1880 C   0  0  0  0  0  0  0  0  0  0  0  0
    3.8260   -0.0620   -1.0170 O   0  0  0  0  0  0  0  0  0  0  0  0
    4.5130    0.4960    1.1190 N   0  0  0  0  0  0  0  0  0  0  0  0
    5.8610    0.7490    0.7150 C   0  0  0  0  0  0  0  0  0  0  0  0
    6.3300    1.9730    0.8190 C   0  0  0  0  0  0  0  0  0  0  0  0
    7.6380    2.3960    0.4560 C   0  0  0  0  0  0  0  0  0  0  0  0
    8.0300    4.1110    0.7100 Cl  0  0  0  0  0  0  0  0  0  0  0  0
    8.6170    1.6770   -0.0520 C   0  0  0  0  0  0  0  0  0  0  0  0
    8.3090   -0.0570   -0.3450 S   0  0  0  0  0  0  0  0  0  0  0  0
    6.6710   -0.3740    0.2830 C   0  0  0  0  0  0  0  0  0  0  0  0
    6.2910   -1.6190    0.3580 C   0  0  0  0  0  0  0  0  0  0  0  0
    5.0770   -2.0220    0.8560 F   0  0  0  0  0  0  0  0  0  0  0  0
    7.1060   -2.6170   -0.0690 F   0  0  0  0  0  0  0  0  0  0  0  0
   -0.1300   -0.8350    0.1100 C   0  0  0  0  0  0  0  0  0  0  0  0
   -0.4070   -0.6800    1.3350 O   0  0  0  0  0  0  0  0  0  0  0  0
  2  1  1  1
  2  3  1  0
  2 10  1  0
  3  4  1  0
  4  5  2  0
  4  6  1  0
  7  6  1  6
  7  8  1  0
  7  9  1  0
  8  9  1  0
 10 11  1  0
 10 29  1  0
 11 12  2  0
 12 13  1  0
 13 14  2  0
 14 15  1  0
 14 29  1  0
 15 16  1  0
 16 17  2  0
 16 18  1  0
 18 19  1  0
 19 20  2  0
 19 25  1  0
 20 21  1  0
 21 22  1  0
 21 23  2  0
 23 24  1  0
 24 25  1  0
 25 26  2  3
 26 27  1  0
 26 28  1  0
 29 30  2  0
M  END
