
     RDKit          3D

 31 33  0  0  0  0  0  0  0  0999 V2000
   -7.6700   -0.4180    1.6100 C   0  0  0  0  0  0  0  0  0  0  0  0
   -6.4010   -0.5910    1.0220 O   0  0  0  0  0  0  0  0  0  0  0  0
   -5.8900    0.2430    0.0450 C   0  0  0  0  0  0  0  0  0  0  0  0
   -6.4970    1.1770   -0.6650 C   0  0  0  0  0  0  0  0  0  0  0  0
   -7.8340    1.5160   -0.5600 O   0  0  0  0  0  0  0  0  0  0  0  0
   -5.5430    1.8200   -1.6000 C   0  0  0  0  0  0  0  0  0  0  0  0
   -4.2730    1.1060   -1.3200 C   0  0  0  0  0  0  0  0  0  0  0  0
   -4.4710    0.1930   -0.3680 C   0  0  0  0  0  0  0  0  0  0  0  0
   -3.5040   -0.6590    0.1450 O   0  0  0  0  0  0  0  0  0  0  0  0
   -2.8130   -0.3480    1.3210 C   0  0  0  0  0  0  0  0  0  0  0  0
   -2.0220    0.9140    1.2980 C   0  0  0  0  0  0  0  0  0  0  0  0
   -0.9950    1.0270    0.3730 O   0  0  0  0  0  0  0  0  0  0  0  0
    0.1370    0.2470    0.2600 C   0  0  0  0  0  0  0  0  0  0  0  0
    0.2110   -0.8260   -0.5790 C   0  0  0  0  0  0  0  0  0  0  0  0
   -0.9190   -1.2420   -1.4880 C   0  0  0  0  0  0  0  0  0  0  0  0
    1.4020   -1.5460   -0.6090 C   0  0  0  0  0  0  0  0  0  0  0  0
    2.5020   -1.2440    0.1510 C   0  0  0  0  0  0  0  0  0  0  0  0
    3.7400   -2.0270    0.1470 C   0  0  0  0  0  0  0  0  0  0  0  0
    3.6130   -3.2740    0.1790 O   0  0  0  0  0  0  0  0  0  0  0  0
    5.0500   -1.4290    0.1090 C   0  0  0  0  0  0  0  0  0  0  0  0
    5.2030   -0.0640   -0.1970 C   0  0  0  0  0  0  0  0  0  0  0  0
    6.4250    0.5520   -0.2890 C   0  0  0  0  0  0  0  0  0  0  0  0
    6.4830    1.9040   -0.5950 O   0  0  0  0  0  0  0  0  0  0  0  0
    5.3630    2.7180   -0.8250 C   0  0  0  0  0  0  0  0  0  0  0  0
    7.5700   -0.1740   -0.0780 C   0  0  0  0  0  0  0  0  0  0  0  0
    7.4630   -1.4990    0.2200 C   0  0  0  0  0  0  0  0  0  0  0  0
    6.1990   -2.1380    0.3160 C   0  0  0  0  0  0  0  0  0  0  0  0
    6.2100   -3.4700    0.6230 O   0  0  0  0  0  0  0  0  0  0  0  0
    2.4060   -0.1890    0.9660 N   0  0  0  0  0  0  0  0  0  0  0  0
    1.2710    0.5410    1.0290 C   0  0  0  0  0  0  0  0  0  0  0  0
    1.1790    1.5350    1.7950 O   0  0  0  0  0  0  0  0  0  0  0  0
  1  2  1  0
  2  3  1  0
  3  4  2  0
  3  8  1  0
  4  5  1  0
  4  6  1  0
  6  7  1  0
  7  8  2  0
  8  9  1  0
  9 10  1  0
 10 11  1  0
 11 12  1  0
 12 13  1  0
 13 14  2  0
 13 30  1  0
 14 15  1  0
 14 16  1  0
 16 17  2  0
 17 18  1  0
 17 29  1  0
 18 19  2  0
 18 20  1  0
 20 21  2  0
 20 27  1  0
 21 22  1  0
 22 23  1  0
 22 25  2  0
 23 24  1  0
 25 26  1  0
 26 27  2  0
 27 28  1  0
 29 30  1  0
 30 31  2  0
M  END
