
     RDKit          3D

 29 31  0  0  0  0  0  0  0  0999 V2000
    0.1810    0.0840   -1.9110 C   0  0  0  0  0  0  0  0  0  0  0  0
    0.7150   -1.3210   -1.9420 C   0  0  0  0  0  0  0  0  0  0  0  0
    2.1700   -1.5800   -2.1320 C   0  0  0  0  0  0  0  0  0  0  0  0
    2.8590   -0.9260   -1.0220 N   0  0  0  0  0  0  0  0  0  0  0  0
    3.0990   -1.5840    0.1410 C   0  0  0  0  0  0  0  0  0  0  0  0
    2.6950   -2.7940    0.2130 O   0  0  0  0  0  0  0  0  0  0  0  0
    3.7330   -0.9820    1.1620 N   0  0  0  0  0  0  0  0  0  0  0  0
    4.1650    0.2910    1.1000 C   0  0  0  0  0  0  0  0  0  0  0  0
    4.8170    0.9090    2.1530 C   0  0  0  0  0  0  0  0  0  0  0  0
    5.2460    2.2250    2.0460 C   0  0  0  0  0  0  0  0  0  0  0  0
    5.0240    2.9340    0.8830 C   0  0  0  0  0  0  0  0  0  0  0  0
    5.5820    4.5920    0.7940 Cl  0  0  0  0  0  0  0  0  0  0  0  0
    4.3720    2.3040   -0.1570 C   0  0  0  0  0  0  0  0  0  0  0  0
    3.9380    0.9910   -0.0660 C   0  0  0  0  0  0  0  0  0  0  0  0
    3.2870    0.3470   -1.0920 C   0  0  0  0  0  0  0  0  0  0  0  0
    3.0870    0.9990   -2.1500 O   0  0  0  0  0  0  0  0  0  0  0  0
   -0.0650   -2.3370   -1.8060 N   0  0  0  0  0  0  0  0  0  0  0  0
   -1.4260   -2.1000   -1.6280 N   0  0  0  0  0  0  0  0  0  0  0  0
   -1.8940   -1.7160   -0.3510 C   0  0  0  0  0  0  0  0  0  0  0  0
   -1.0610   -1.6020    0.5830 O   0  0  0  0  0  0  0  0  0  0  0  0
   -3.2720   -1.4540   -0.0810 N   0  0  0  0  0  0  0  0  0  0  0  0
   -3.6990   -1.0630    1.2470 C   0  0  2  0  0  0  0  0  0  0  0  0
   -4.7290   -2.0130    1.7870 C   0  0  0  0  0  0  0  0  0  0  0  0
   -4.3320    0.3030    1.1560 C   0  0  0  0  0  0  0  0  0  0  0  0
   -3.9430    1.4060    0.5170 C   0  0  0  0  0  0  0  0  0  0  0  0
   -4.7390    2.5100    0.6240 C   0  0  0  0  0  0  0  0  0  0  0  0
   -5.8220    2.3830    1.3530 C   0  0  0  0  0  0  0  0  0  0  0  0
   -6.8520    3.3950    1.6400 F   0  0  0  0  0  0  0  0  0  0  0  0
   -5.8190    0.7640    1.9290 S   0  0  0  0  0  0  0  0  0  0  0  0
  1  2  1  0
  2  3  1  0
  2 17  2  3
  3  4  1  0
  4  5  1  0
  4 15  1  0
  5  6  2  0
  5  7  1  0
  7  8  1  0
  8  9  2  0
  8 14  1  0
  9 10  1  0
 10 11  2  0
 11 12  1  0
 11 13  1  0
 13 14  2  0
 14 15  1  0
 15 16  2  0
 17 18  1  0
 18 19  1  0
 19 20  2  0
 19 21  1  0
 21 22  1  0
 22 23  1  6
 22 24  1  0
 24 25  2  0
 24 29  1  0
 25 26  1  0
 26 27  2  0
 27 28  1  0
 27 29  1  0
M  END
