
     RDKit          3D

 31 33  0  0  0  0  0  0  0  0999 V2000
   -5.5970    2.8590    0.7380 C   0  0  0  0  0  0  0  0  0  0  0  0
   -4.2540    2.3670    0.2950 C   0  0  0  0  0  0  0  0  0  0  0  0
   -3.6000    3.0050   -0.7470 C   0  0  0  0  0  0  0  0  0  0  0  0
   -2.3610    2.5740   -1.1770 C   0  0  0  0  0  0  0  0  0  0  0  0
   -1.7790    1.4800   -0.5400 C   0  0  0  0  0  0  0  0  0  0  0  0
   -2.3910    0.8250    0.4880 C   0  0  0  0  0  0  0  0  0  0  0  0
   -1.8690   -0.2550    1.1500 O   0  0  0  0  0  0  0  0  0  0  0  0
   -2.1520   -1.5860    0.9040 C   0  0  0  0  0  0  0  0  0  0  0  0
   -2.7250   -2.3160    1.9660 C   0  0  0  0  0  0  0  0  0  0  0  0
   -3.0210   -3.6440    1.7580 C   0  0  0  0  0  0  0  0  0  0  0  0
   -3.6000   -4.4680    2.7620 N   0  0  0  0  0  0  0  0  0  0  0  0
   -2.7590   -4.2420    0.5280 C   0  0  0  0  0  0  0  0  0  0  0  0
   -2.1990   -3.5290   -0.5090 C   0  0  0  0  0  0  0  0  0  0  0  0
   -1.8980   -2.1830   -0.3000 C   0  0  0  0  0  0  0  0  0  0  0  0
   -1.3360   -1.4660   -1.3370 O   0  0  0  0  0  0  0  0  0  0  0  0
    0.0500   -1.4880   -1.5820 C   0  0  0  0  0  0  0  0  0  0  0  0
    0.7160   -2.2100   -0.7790 O   0  0  0  0  0  0  0  0  0  0  0  0
    0.6970   -0.7470   -2.6680 C   0  0  0  0  0  0  0  0  0  0  0  0
    2.0770   -0.9900   -2.6260 O   0  0  0  0  0  0  0  0  0  0  0  0
    2.8970   -0.6960   -1.5660 C   0  0  0  0  0  0  0  0  0  0  0  0
    2.3630   -0.1620   -0.5450 O   0  0  0  0  0  0  0  0  0  0  0  0
    4.3700   -0.9890   -1.6010 C   0  0  0  0  0  0  0  0  0  0  0  0
    5.0020   -0.6080   -0.4190 O   0  0  0  0  0  0  0  0  0  0  0  0
    5.0000    0.7130    0.0360 C   0  0  0  0  0  0  0  0  0  0  0  0
    4.6270    1.6970   -0.7370 C   0  0  0  0  0  0  0  0  0  0  0  0
    4.5960    3.1160   -0.3350 C   0  0  0  0  0  0  0  0  0  0  0  0
    5.0150    3.2690    0.9710 O   0  0  0  0  0  0  0  0  0  0  0  0
    5.4140    2.2420    1.8070 C   0  0  0  0  0  0  0  0  0  0  0  0
    5.4240    0.9830    1.3980 C   0  0  0  0  0  0  0  0  0  0  0  0
    5.8300   -0.0220    2.2610 O   0  0  0  0  0  0  0  0  0  0  0  0
   -3.6440    1.2930    0.8950 C   0  0  0  0  0  0  0  0  0  0  0  0
  1  2  1  0
  2  3  2  0
  2 31  1  0
  3  4  1  0
  4  5  2  0
  5  6  1  0
  6  7  1  0
  6 31  2  0
  7  8  1  0
  8  9  2  0
  8 14  1  0
  9 10  1  0
 10 11  1  0
 10 12  2  0
 12 13  1  0
 13 14  2  0
 14 15  1  0
 15 16  1  0
 16 17  2  0
 16 18  1  0
 18 19  1  0
 19 20  1  0
 20 21  2  0
 20 22  1  0
 22 23  1  0
 23 24  1  0
 24 25  2  0
 24 29  1  0
 25 26  1  0
 26 27  1  0
 27 28  1  0
 28 29  2  0
 29 30  1  0
M  END
