
     RDKit          3D

 30 32  0  0  0  0  0  0  0  0999 V2000
   -2.3780   -2.9720    4.4850 C   0  0  0  0  0  0  0  0  0  0  0  0
   -1.2450   -2.7160    3.5500 C   0  0  0  0  0  0  0  0  0  0  0  0
   -1.0690   -1.3380    3.2450 O   0  0  0  0  0  0  0  0  0  0  0  0
   -2.1060   -0.6000    2.6640 C   0  0  0  0  0  0  0  0  0  0  0  0
   -3.1640   -1.2400    2.4460 O   0  0  0  0  0  0  0  0  0  0  0  0
   -2.0050    0.8060    2.3250 C   0  0  0  0  0  0  0  0  0  0  0  0
   -2.3560    1.7730    3.2430 C   0  0  0  0  0  0  0  0  0  0  0  0
   -2.8400    1.3780    4.6040 C   0  0  0  0  0  0  0  0  0  0  0  0
   -2.2600    3.0710    2.9290 N   0  0  0  0  0  0  0  0  0  0  0  0
   -1.8260    3.5030    1.7320 C   0  0  0  0  0  0  0  0  0  0  0  0
   -1.7540    4.7560    1.4870 O   0  0  0  0  0  0  0  0  0  0  0  0
   -1.4620    2.5850    0.7750 C   0  0  0  0  0  0  0  0  0  0  0  0
   -1.0260    2.9640   -0.4350 N   0  0  0  0  0  0  0  0  0  0  0  0
   -0.6890    2.0860   -1.3260 N   0  0  0  0  0  0  0  0  0  0  0  0
   -0.7600    0.7740   -1.0830 C   0  0  0  0  0  0  0  0  0  0  0  0
   -0.4210   -0.2020   -2.0620 N   0  0  0  0  0  0  0  0  0  0  0  0
    0.0330    0.0360   -3.3730 C   0  0  0  0  0  0  0  0  0  0  0  0
    1.5350    0.0600   -3.5670 C   0  0  0  0  0  0  0  0  0  0  0  0
    2.0930   -0.8190   -4.3660 C   0  0  0  0  0  0  0  0  0  0  0  0
    3.5310   -0.7620   -4.5270 C   0  0  0  0  0  0  0  0  0  0  0  0
    4.3710   -1.6750   -4.9400 C   0  0  0  0  0  0  0  0  0  0  0  0
    5.8220   -1.3880   -5.0300 C   0  0  2  0  0  0  0  0  0  0  0  0
    6.1120   -0.8880   -6.2980 F   0  0  0  0  0  0  0  0  0  0  0  0
    6.5200   -2.5850   -4.9270 F   0  0  0  0  0  0  0  0  0  0  0  0
    6.4060   -0.2550   -3.8290 Cl  0  0  0  0  0  0  0  0  0  0  0  0
    3.9130    0.9190   -4.0060 S   0  0  0  0  0  0  0  0  0  0  0  0
    2.4280    0.9990   -2.9420 C   0  0  0  0  0  0  0  0  0  0  0  0
    2.2880    1.7390   -1.8860 N   0  0  0  0  0  0  0  0  0  0  0  0
   -1.2060    0.2890    0.1580 C   0  0  0  0  0  0  0  0  0  0  0  0
   -1.5630    1.2280    1.1010 C   0  0  0  0  0  0  0  0  0  0  0  0
  1  2  1  0
  2  3  1  0
  3  4  1  0
  4  5  2  0
  4  6  1  0
  6  7  2  0
  6 30  1  0
  7  8  1  0
  7  9  1  0
  9 10  1  0
 10 11  2  0
 10 12  1  0
 12 13  2  0
 12 30  1  0
 13 14  1  0
 14 15  2  0
 15 16  1  0
 15 29  1  0
 16 17  1  0
 17 18  1  0
 18 19  2  0
 18 27  1  0
 19 20  1  0
 20 21  2  3
 20 26  1  0
 21 22  1  0
 22 23  1  6
 22 24  1  0
 22 25  1  0
 26 27  1  0
 27 28  2  0
 29 30  2  0
M  END
