
     RDKit          3D

 31 33  0  0  0  0  0  0  0  0999 V2000
   -5.4120    4.1230    1.4690 C   0  0  0  0  0  0  0  0  0  0  0  0
   -5.0160    2.8280    1.0510 O   0  0  0  0  0  0  0  0  0  0  0  0
   -3.7460    2.4710    0.6940 C   0  0  0  0  0  0  0  0  0  0  0  0
   -2.8520    3.3530    0.7360 O   0  0  0  0  0  0  0  0  0  0  0  0
   -3.3850    1.1180    0.2670 C   0  0  0  0  0  0  0  0  0  0  0  0
   -2.0690    0.8100   -0.0890 C   0  0  0  0  0  0  0  0  0  0  0  0
   -1.6890   -0.4340   -0.4960 C   0  0  0  0  0  0  0  0  0  0  0  0
   -0.3670   -0.7920   -0.8430 N   0  0  0  0  0  0  0  0  0  0  0  0
    0.8040   -0.0960   -0.4930 C   0  0  0  0  0  0  0  0  0  0  0  0
    0.6680    0.9570    0.2230 O   0  0  0  0  0  0  0  0  0  0  0  0
    2.1290   -0.5230   -0.9040 C   0  0  0  0  0  0  0  0  0  0  0  0
    3.3010   -0.0860   -0.2630 C   0  0  0  0  0  0  0  0  0  0  0  0
    4.3460   -0.7000   -0.8710 C   0  0  0  0  0  0  0  0  0  0  0  0
    5.8030   -0.5550   -0.5410 C   0  0  1  0  0  0  0  0  0  0  0  0
    6.5770   -0.3820   -1.6720 O   0  0  0  0  0  0  0  0  0  0  0  0
    6.0340    0.4750    0.4960 C   0  0  0  0  0  0  0  0  0  0  0  0
    6.7790    1.5380    0.2740 C   0  0  0  0  0  0  0  0  0  0  0  0
    7.0110    2.5620    1.3010 C   0  0  0  0  0  0  0  0  0  0  0  0
    6.3810    2.3020    2.5180 O   0  0  0  0  0  0  0  0  0  0  0  0
    5.5970    1.1940    2.7690 C   0  0  0  0  0  0  0  0  0  0  0  0
    5.4250    0.3120    1.8050 C   0  0  0  0  0  0  0  0  0  0  0  0
    3.8640   -1.4580   -1.8180 O   0  0  0  0  0  0  0  0  0  0  0  0
    2.5450   -1.3800   -1.8700 C   0  0  0  0  0  0  0  0  0  0  0  0
    1.7280   -2.1280   -2.8480 C   0  0  0  0  0  0  0  0  0  0  0  0
   -2.6820   -1.4200   -0.5490 C   0  0  0  0  0  0  0  0  0  0  0  0
   -3.9960   -1.1800   -0.2110 C   0  0  0  0  0  0  0  0  0  0  0  0
   -4.9620   -2.1940   -0.2760 O   0  0  0  0  0  0  0  0  0  0  0  0
   -6.2830   -1.8480    0.0920 C   0  0  0  0  0  0  0  0  0  0  0  0
   -7.2010   -3.0500   -0.0330 C   0  0  0  0  0  0  0  0  0  0  0  0
   -6.7030   -4.0280    0.8210 O   0  0  0  0  0  0  0  0  0  0  0  0
   -4.3050    0.1020    0.1920 C   0  0  0  0  0  0  0  0  0  0  0  0
  1  2  1  0
  2  3  1  0
  3  4  2  0
  3  5  1  0
  5  6  2  0
  5 31  1  0
  6  7  1  0
  7  8  1  0
  7 25  2  0
  8  9  1  0
  9 10  2  0
  9 11  1  0
 11 12  1  0
 11 23  2  0
 12 13  2  0
 13 14  1  0
 13 22  1  0
 14 15  1  6
 14 16  1  0
 16 17  2  0
 16 21  1  0
 17 18  1  0
 18 19  1  0
 19 20  1  0
 20 21  2  0
 22 23  1  0
 23 24  1  0
 25 26  1  0
 26 27  1  0
 26 31  2  0
 27 28  1  0
 28 29  1  0
 29 30  1  0
M  END
