
     RDKit          3D

 26 29  0  0  0  0  0  0  0  0999 V2000
   -2.5240    0.1410   -2.6140 O   0  0  0  0  0  0  0  0  0  0  0  0
   -1.4740   -0.0130   -1.6940 C   0  0  1  0  0  0  0  0  0  0  0  0
   -0.3130    0.7720   -2.2420 C   0  0  0  0  0  0  0  0  0  0  0  0
    0.6260    1.0310   -1.0350 C   0  0  1  0  0  0  0  0  0  0  0  0
    1.5280   -0.1250   -0.9790 C   0  0  0  0  0  0  0  0  0  0  0  0
    2.6210   -0.2220   -0.0000 C   0  0  1  0  0  0  0  0  0  0  0  0
    2.3250   -0.1910    1.4450 C   0  0  0  0  0  0  0  0  0  0  0  0
    3.6590   -0.3610    2.1990 C   0  0  0  0  0  0  0  0  0  0  0  0
    3.9410   -1.8160    2.3180 C   0  0  0  0  0  0  0  0  0  0  0  0
    4.8920   -2.2520    1.3890 O   0  0  0  0  0  0  0  0  0  0  0  0
    4.7070   -1.6030    0.1630 C   0  0  0  0  0  0  0  0  0  0  0  0
    3.2790   -1.6060   -0.2660 C   0  0  2  0  0  0  0  0  0  0  0  0
    3.1390   -1.8480   -1.6400 O   0  0  0  0  0  0  0  0  0  0  0  0
    1.3430    2.3120   -1.3530 C   0  0  0  0  0  0  0  0  0  0  0  0
    0.4800    3.5200   -1.3510 C   0  0  0  0  0  0  0  0  0  0  0  0
   -0.4830    3.6110   -0.2050 C   0  0  0  0  0  0  0  0  0  0  0  0
   -0.3550    2.4690    0.7670 C   0  0  0  0  0  0  0  0  0  0  0  0
   -0.3300    1.1260    0.0910 C   0  0  1  0  0  0  0  0  0  0  0  0
   -1.7310    0.7510   -0.4120 C   0  0  2  0  0  0  0  0  0  0  0  0
   -2.4720   -0.0370    0.6160 C   0  0  2  0  0  0  0  0  0  0  0  0
   -1.7690   -1.1850    0.9780 O   0  0  0  0  0  0  0  0  0  0  0  0
   -3.8460   -0.4400    0.2090 C   0  0  2  0  0  0  0  0  0  0  0  0
   -4.5010   -1.1450    1.3800 C   0  0  0  0  0  0  0  0  0  0  0  0
   -4.5140   -2.5910    0.8690 C   0  0  0  0  0  0  0  0  0  0  0  0
   -4.7310   -2.3200   -0.6260 C   0  0  0  0  0  0  0  0  0  0  0  0
   -3.8330   -1.3070   -0.8510 O   0  0  0  0  0  0  0  0  0  0  0  0
  2  1  1  6
  2  3  1  0
 19  2  1  6
  3  4  1  0
  4  5  1  1
  4 14  1  0
  4 18  1  0
  6  5  1  6
  6  7  1  0
  6 12  1  0
  7  8  1  0
  8  9  1  0
  9 10  1  0
 10 11  1  0
 11 12  1  0
 12 13  1  6
 14 15  1  0
 15 16  1  0
 16 17  1  0
 18 17  1  6
 18 19  1  0
 19 20  1  0
 20 21  1  6
 20 22  1  0
 22 23  1  1
 22 26  1  0
 23 24  1  0
 24 25  1  0
 25 26  1  0
M  END
