
     RDKit          3D

 26 29  0  0  0  0  0  0  0  0999 V2000
    2.8590    2.8000    1.1520 O   0  0  0  0  0  0  0  0  0  0  0  0
    2.6470    2.0500    0.0090 C   0  0  2  0  0  0  0  0  0  0  0  0
    1.3780    1.2130    0.1140 C   0  0  1  0  0  0  0  0  0  0  0  0
    0.2810    1.9120   -0.3630 O   0  0  0  0  0  0  0  0  0  0  0  0
   -0.6790    2.1910    0.5470 C   0  0  0  0  0  0  0  0  0  0  0  0
   -1.4570    1.1070    1.1670 C   0  0  0  0  0  0  0  0  0  0  0  0
   -2.3510    0.2910    0.3200 C   0  0  2  0  0  0  0  0  0  0  0  0
   -1.7470   -0.4520   -0.7960 C   0  0  0  0  0  0  0  0  0  0  0  0
   -2.7080   -1.1240   -1.7280 C   0  0  0  0  0  0  0  0  0  0  0  0
   -3.9310   -0.5160   -1.8560 O   0  0  0  0  0  0  0  0  0  0  0  0
   -4.4870   -0.0440   -0.7060 C   0  0  2  0  0  0  0  0  0  0  0  0
   -4.7170   -1.1130    0.3090 C   0  0  0  0  0  0  0  0  0  0  0  0
   -6.0400   -1.7350   -0.1560 C   0  0  0  0  0  0  0  0  0  0  0  0
   -6.8550   -0.4940   -0.4290 C   0  0  0  0  0  0  0  0  0  0  0  0
   -5.8650    0.4990   -1.0010 C   0  0  0  0  0  0  0  0  0  0  0  0
   -3.5630    1.0690   -0.1920 C   0  0  0  0  0  0  0  0  0  0  0  0
    1.6720    0.0380   -0.7450 C   0  0  0  0  0  0  0  0  0  0  0  0
    3.1650   -0.1380   -0.8430 C   0  0  2  0  0  0  0  0  0  0  0  0
    3.5770   -0.0400   -2.1770 O   0  0  0  0  0  0  0  0  0  0  0  0
    3.5320   -1.4990   -0.3540 C   0  0  0  0  0  0  0  0  0  0  0  0
    5.0240   -1.7230   -0.3300 C   0  0  2  0  0  0  0  0  0  0  0  0
    5.2610   -3.0720   -0.5870 O   0  0  0  0  0  0  0  0  0  0  0  0
    5.6020   -1.4300    1.0380 C   0  0  0  0  0  0  0  0  0  0  0  0
    5.5070    0.0270    1.3880 C   0  0  0  0  0  0  0  0  0  0  0  0
    4.1060    0.5510    1.3830 C   0  0  0  0  0  0  0  0  0  0  0  0
    3.7270    0.9750   -0.0100 C   0  0  2  0  0  0  0  0  0  0  0  0
  2  1  1  1
  2  3  1  0
  2 26  1  0
  3  4  1  6
  3 17  1  0
  4  5  1  0
  5  6  1  0
  7  6  1  6
  7  8  1  0
  7 16  1  0
  8  9  1  0
  9 10  1  0
 10 11  1  0
 11 12  1  1
 11 15  1  0
 11 16  1  0
 12 13  1  0
 13 14  1  0
 14 15  1  0
 17 18  1  0
 18 19  1  6
 18 20  1  0
 18 26  1  0
 20 21  1  0
 21 22  1  1
 21 23  1  0
 23 24  1  0
 24 25  1  0
 26 25  1  1
M  END
