
     RDKit          3D

 35 38  0  0  0  0  0  0  0  0999 V2000
   -4.4620   -3.3030    2.6870 C   0  0  0  0  0  0  0  0  0  0  0  0
   -3.0810   -2.7800    2.3960 C   0  0  0  0  0  0  0  0  0  0  0  0
   -2.8560   -1.4490    2.4970 C   0  0  0  0  0  0  0  0  0  0  0  0
   -3.9300   -0.5790    2.8760 C   0  0  0  0  0  0  0  0  0  0  0  0
   -4.2140    0.6680    2.6950 C   0  0  0  0  0  0  0  0  0  0  0  0
   -3.4800    1.7240    1.9800 C   0  0  0  0  0  0  0  0  0  0  0  0
   -3.6570    1.6550    0.4540 C   0  0  0  0  0  0  0  0  0  0  0  0
   -2.6690    2.5380   -0.2210 C   0  0  0  0  0  0  0  0  0  0  0  0
   -1.9230    1.9340   -1.3810 C   0  0  0  0  0  0  0  0  0  0  0  0
   -0.4010    1.9320   -1.1070 C   0  0  2  0  0  0  0  0  0  0  0  0
   -0.0100    3.3820   -1.0940 C   0  0  0  0  0  0  0  0  0  0  0  0
   -0.5700    4.0100   -2.3780 C   0  0  0  0  0  0  0  0  0  0  0  0
   -0.2370    3.2290   -3.5910 C   0  0  0  0  0  0  0  0  0  0  0  0
   -0.1650    1.7470   -3.3950 C   0  0  0  0  0  0  0  0  0  0  0  0
    0.2500    1.3390   -2.1510 O   0  0  0  0  0  0  0  0  0  0  0  0
   -0.2310    1.1910    0.1380 C   0  0  0  0  0  0  0  0  0  0  0  0
    0.7180    0.1140    0.2470 N   0  0  0  0  0  0  0  0  0  0  0  0
    2.0850    0.3980    0.3700 C   0  0  0  0  0  0  0  0  0  0  0  0
    2.3720    1.6620    0.3290 O   0  0  0  0  0  0  0  0  0  0  0  0
    3.2660   -0.4210    0.5350 C   0  0  1  0  0  0  0  0  0  0  0  0
    4.3570   -0.1360   -0.4800 C   0  0  0  0  0  0  0  0  0  0  0  0
    4.8610    1.2190   -0.0560 C   0  0  0  0  0  0  0  0  0  0  0  0
    4.5850    1.3380    1.4270 C   0  0  0  0  0  0  0  0  0  0  0  0
    4.0180    0.0250    1.7860 C   0  0  1  0  0  0  0  0  0  0  0  0
    3.1130   -0.0310    2.8100 O   0  0  0  0  0  0  0  0  0  0  0  0
    2.9900   -1.4130    3.0950 C   0  0  0  0  0  0  0  0  0  0  0  0
    3.3020   -2.2930    1.9380 C   0  0  0  0  0  0  0  0  0  0  0  0
    3.0880   -1.7710    0.6840 O   0  0  0  0  0  0  0  0  0  0  0  0
    0.1900   -1.2190    0.2240 C   0  0  2  0  0  0  0  0  0  0  0  0
    0.0120   -1.7320   -1.2170 C   0  0  0  0  0  0  0  0  0  0  0  0
    1.2650   -1.7890   -2.0030 C   0  0  0  0  0  0  0  0  0  0  0  0
    0.8660   -2.2980   -3.3990 C   0  0  0  0  0  0  0  0  0  0  0  0
    0.2360   -3.6580   -3.3100 C   0  0  0  0  0  0  0  0  0  0  0  0
   -1.2010   -1.3840    0.7800 C   0  0  0  0  0  0  0  0  0  0  0  0
   -1.4440   -1.0720    2.1930 C   0  0  0  0  0  0  0  0  0  0  0  0
  1  2  1  0
  2  3  2  3
  3  4  1  0
  3 35  1  0
  4  5  2  0
  5  6  1  0
  6  7  1  0
  7  8  1  0
  8  9  1  0
 10  9  1  6
 10 11  1  0
 10 15  1  0
 10 16  1  0
 11 12  1  0
 12 13  1  0
 13 14  1  0
 14 15  1  0
 16 17  1  0
 17 18  1  0
 17 29  1  0
 18 19  2  0
 20 18  1  6
 20 21  1  0
 20 24  1  0
 20 28  1  0
 21 22  1  0
 22 23  1  0
 24 23  1  6
 24 25  1  0
 25 26  1  0
 26 27  1  0
 27 28  1  0
 29 30  1  6
 29 34  1  0
 30 31  1  0
 31 32  1  0
 32 33  1  0
 34 35  1  0
M  END
