
     RDKit          3D

 35 39  0  0  0  0  0  0  0  0999 V2000
    5.1640    2.2480   -1.3600 C   0  0  0  0  0  0  0  0  0  0  0  0
    5.2380    1.8390    0.0980 C   0  0  0  0  0  0  0  0  0  0  0  0
    4.4750    0.6230    0.4200 C   0  0  0  0  0  0  0  0  0  0  0  0
    5.0570   -0.5910    0.1800 C   0  0  0  0  0  0  0  0  0  0  0  0
    6.4070   -0.8360   -0.2810 C   0  0  2  0  0  0  0  0  0  0  0  0
    6.9150   -0.3190   -1.5510 C   0  0  0  0  0  0  0  0  0  0  0  0
    6.5970   -2.3710   -0.3790 C   0  0  0  0  0  0  0  0  0  0  0  0
    7.3820   -0.4110    0.8110 C   0  0  0  0  0  0  0  0  0  0  0  0
    4.2410   -1.6980    0.4660 C   0  0  0  0  0  0  0  0  0  0  0  0
    2.9560   -1.5750    0.9530 C   0  0  0  0  0  0  0  0  0  0  0  0
    2.3940   -0.3410    1.1880 C   0  0  0  0  0  0  0  0  0  0  0  0
    3.1710    0.7490    0.9150 C   0  0  0  0  0  0  0  0  0  0  0  0
    2.3880    1.9680    1.2300 C   0  0  0  0  0  0  0  0  0  0  0  0
    1.3720    1.4770    2.2320 C   0  0  0  0  0  0  0  0  0  0  0  0
    1.0600    0.0890    1.7020 C   0  0  1  0  0  0  0  0  0  0  0  0
    0.1200    0.2260    0.6810 O   0  0  0  0  0  0  0  0  0  0  0  0
   -1.0950   -0.5030    0.7930 C   0  0  0  0  0  0  0  0  0  0  0  0
   -1.2100   -1.2130    1.8100 O   0  0  0  0  0  0  0  0  0  0  0  0
   -2.1210   -0.3960   -0.2370 C   0  0  2  0  0  0  0  0  0  0  0  0
   -2.9870    0.8250    0.2020 C   0  0  1  0  0  0  0  0  0  0  0  0
   -3.5650    1.5090   -0.9730 C   0  0  0  0  0  0  0  0  0  0  0  0
   -4.3920    2.7170   -0.6800 C   0  0  2  0  0  0  0  0  0  0  0  0
   -5.5920    2.5170    0.1640 C   0  0  0  0  0  0  0  0  0  0  0  0
   -6.5980    3.4880   -0.4670 C   0  0  0  0  0  0  0  0  0  0  0  0
   -6.0750    3.6490   -1.8460 C   0  0  0  0  0  0  0  0  0  0  0  0
   -4.7500    3.3440   -1.8670 O   0  0  0  0  0  0  0  0  0  0  0  0
   -3.9740    0.1270    1.0760 C   0  0  0  0  0  0  0  0  0  0  0  0
   -4.5600    0.4840    2.1180 O   0  0  0  0  0  0  0  0  0  0  0  0
   -4.1970   -1.1790    0.5000 N   0  0  0  0  0  0  0  0  0  0  0  0
   -5.2720   -2.1290    0.5840 C   0  0  0  0  0  0  0  0  0  0  0  0
   -4.7720   -3.5300    0.8470 C   0  0  0  0  0  0  0  0  0  0  0  0
   -3.6080   -3.9240   -0.0100 C   0  0  0  0  0  0  0  0  0  0  0  0
   -2.5060   -2.8640    0.0650 C   0  0  0  0  0  0  0  0  0  0  0  0
   -3.0420   -1.5360   -0.3270 C   0  0  2  0  0  0  0  0  0  0  0  0
   -3.5020   -1.6740   -1.7910 C   0  0  0  0  0  0  0  0  0  0  0  0
  1  2  1  0
  2  3  1  0
  3  4  2  0
  3 12  1  0
  4  5  1  0
  4  9  1  0
  5  6  1  6
  5  7  1  0
  5  8  1  0
  9 10  2  0
 10 11  1  0
 11 12  2  0
 11 15  1  0
 12 13  1  0
 13 14  1  0
 14 15  1  0
 15 16  1  6
 16 17  1  0
 17 18  2  0
 19 17  1  1
 19 20  1  0
 19 34  1  0
 20 21  1  6
 20 27  1  0
 22 21  1  6
 22 23  1  0
 22 26  1  0
 23 24  1  0
 24 25  1  0
 25 26  1  0
 27 28  2  0
 27 29  1  0
 29 30  1  0
 29 34  1  0
 30 31  1  0
 31 32  1  0
 32 33  1  0
 33 34  1  0
 34 35  1  6
M  END
