
     RDKit          3D

 35 39  0  0  0  0  0  0  0  0999 V2000
   -6.1800    2.1760    2.7980 C   0  0  0  0  0  0  0  0  0  0  0  0
   -5.5030    2.0340    1.4910 C   0  0  0  0  0  0  0  0  0  0  0  0
   -4.7810    3.0680    0.9800 C   0  0  0  0  0  0  0  0  0  0  0  0
   -4.1600    2.9080   -0.2410 C   0  0  0  0  0  0  0  0  0  0  0  0
   -4.2610    1.7060   -0.9530 C   0  0  0  0  0  0  0  0  0  0  0  0
   -4.9910    0.6650   -0.4300 C   0  0  0  0  0  0  0  0  0  0  0  0
   -5.6040    0.8440    0.7880 C   0  0  0  0  0  0  0  0  0  0  0  0
   -6.4120   -0.2520    1.3730 C   0  0  0  0  0  0  0  0  0  0  0  0
   -5.7450   -1.5600    1.0230 C   0  0  0  0  0  0  0  0  0  0  0  0
   -5.5770   -1.7830   -0.4530 C   0  0  2  0  0  0  0  0  0  0  0  0
   -4.7110   -3.0020   -0.6460 C   0  0  0  0  0  0  0  0  0  0  0  0
   -4.1140   -3.1270   -1.9950 C   0  0  0  0  0  0  0  0  0  0  0  0
   -4.1850   -2.0210   -2.8110 O   0  0  0  0  0  0  0  0  0  0  0  0
   -3.9450   -0.8310   -2.0830 C   0  0  2  0  0  0  0  0  0  0  0  0
   -2.5840   -0.8060   -1.5450 C   0  0  0  0  0  0  0  0  0  0  0  0
   -2.2160   -0.5640   -0.2480 C   0  0  0  0  0  0  0  0  0  0  0  0
   -0.8860   -0.5440    0.1930 C   0  0  0  0  0  0  0  0  0  0  0  0
    0.1330   -0.7750   -0.6990 C   0  0  0  0  0  0  0  0  0  0  0  0
    1.5270   -0.7630   -0.2850 C   0  0  0  0  0  0  0  0  0  0  0  0
    1.7960   -0.5360    0.9140 O   0  0  0  0  0  0  0  0  0  0  0  0
    2.5750   -1.0160   -1.2780 C   0  0  0  0  0  0  0  0  0  0  0  0
    3.9590   -0.9720   -0.7300 C   0  0  0  0  0  0  0  0  0  0  0  0
    4.2860    0.3500   -0.1370 C   0  0  0  0  0  0  0  0  0  0  0  0
    3.4070    1.2430   -0.1670 O   0  0  0  0  0  0  0  0  0  0  0  0
    5.5490    0.5920    0.4420 N   0  0  0  0  0  0  0  0  0  0  0  0
    5.8330    1.8930    1.0110 C   0  0  0  0  0  0  0  0  0  0  0  0
    7.2340    2.3210    0.6160 C   0  0  2  0  0  0  0  0  0  0  0  0
    7.2600    2.8880   -0.7890 C   0  0  0  0  0  0  0  0  0  0  0  0
    8.1950    1.3710    0.8270 O   0  0  0  0  0  0  0  0  0  0  0  0
    7.7650    0.1530    1.2660 C   0  0  2  0  0  0  0  0  0  0  0  0
    8.8960   -0.8460    1.2570 C   0  0  0  0  0  0  0  0  0  0  0  0
    6.5910   -0.4070    0.4980 C   0  0  0  0  0  0  0  0  0  0  0  0
   -0.2240   -1.0200   -2.0070 C   0  0  0  0  0  0  0  0  0  0  0  0
   -1.5180   -1.0410   -2.4450 C   0  0  0  0  0  0  0  0  0  0  0  0
   -5.0900   -0.5840   -1.1940 C   0  0  2  0  0  0  0  0  0  0  0  0
  1  2  1  0
  2  3  2  0
  2  7  1  0
  3  4  1  0
  4  5  2  0
  5  6  1  0
  6  7  2  0
 35  6  1  1
  7  8  1  0
  8  9  1  0
 10  9  1  1
 10 11  1  0
 10 35  1  0
 11 12  1  0
 12 13  1  0
 13 14  1  0
 14 15  1  1
 14 35  1  0
 15 16  2  0
 15 34  1  0
 16 17  1  0
 17 18  2  0
 18 19  1  0
 18 33  1  0
 19 20  2  0
 19 21  1  0
 21 22  1  0
 22 23  1  0
 23 24  2  0
 23 25  1  0
 25 26  1  0
 25 32  1  0
 26 27  1  0
 27 28  1  6
 27 29  1  0
 29 30  1  0
 30 31  1  6
 30 32  1  0
 33 34  2  0
M  END
