
     RDKit          3D

 34 38  0  0  0  0  0  0  0  0999 V2000
    5.8390    0.5940    1.7760 C   0  0  0  0  0  0  0  0  0  0  0  0
    4.6800    0.1490    0.8710 C   0  0  2  0  0  0  0  0  0  0  0  0
    4.8880    0.8190   -0.4180 C   0  0  0  0  0  0  0  0  0  0  0  0
    4.7880    0.3090   -1.6260 C   0  0  0  0  0  0  0  0  0  0  0  0
    4.4290   -1.1080   -1.9260 C   0  0  0  0  0  0  0  0  0  0  0  0
    3.3070   -1.1690   -2.9470 C   0  0  0  0  0  0  0  0  0  0  0  0
    2.3450   -2.0030   -2.5630 O   0  0  0  0  0  0  0  0  0  0  0  0
    1.0900   -2.2490   -2.1690 C   0  0  0  0  0  0  0  0  0  0  0  0
    0.3030   -2.6280   -3.1470 O   0  0  0  0  0  0  0  0  0  0  0  0
    0.4340   -2.1860   -0.8810 C   0  0  0  0  0  0  0  0  0  0  0  0
   -0.0050   -1.2270   -0.1170 C   0  0  0  0  0  0  0  0  0  0  0  0
    0.0150    0.2350   -0.3140 C   0  0  1  0  0  0  0  0  0  0  0  0
    1.0460    0.8740   -1.0980 C   0  0  0  0  0  0  0  0  0  0  0  0
    1.3570    2.2170   -0.4850 C   0  0  0  0  0  0  0  0  0  0  0  0
    1.2170    3.2100   -1.2370 O   0  0  0  0  0  0  0  0  0  0  0  0
    1.7690    2.2320    0.8560 N   0  0  0  0  0  0  0  0  0  0  0  0
    1.8480    2.3570    2.2980 C   0  0  0  0  0  0  0  0  0  0  0  0
    3.0270    1.9160    1.4310 C   0  0  1  0  0  0  0  0  0  0  0  0
    3.3730    0.4730    1.5540 C   0  0  0  0  0  0  0  0  0  0  0  0
   -1.4060    0.5610   -0.6090 C   0  0  0  0  0  0  0  0  0  0  0  0
   -2.2470    0.1750    0.3390 C   0  0  0  0  0  0  0  0  0  0  0  0
   -1.7110   -0.5270    1.5670 C   0  0  0  0  0  0  0  0  0  0  0  0
   -0.6920   -1.5750    1.2180 C   0  0  2  0  0  0  0  0  0  0  0  0
    0.3070   -1.7220    2.3160 C   0  0  0  0  0  0  0  0  0  0  0  0
   -1.4260   -2.8880    1.0520 C   0  0  0  0  0  0  0  0  0  0  0  0
   -3.6760    0.4580    0.1510 C   0  0  2  0  0  0  0  0  0  0  0  0
   -4.5920   -0.1110    1.1690 C   0  0  0  0  0  0  0  0  0  0  0  0
   -5.9370    0.6020    1.0060 C   0  0  0  0  0  0  0  0  0  0  0  0
   -6.1580    1.0950   -0.3910 C   0  0  0  0  0  0  0  0  0  0  0  0
   -5.5070    0.2220   -1.4310 C   0  0  0  0  0  0  0  0  0  0  0  0
   -4.0260    0.1240   -1.2700 C   0  0  1  0  0  0  0  0  0  0  0  0
   -3.3160    1.1110   -2.1730 C   0  0  0  0  0  0  0  0  0  0  0  0
   -1.8780    1.2030   -1.8090 C   0  0  0  0  0  0  0  0  0  0  0  0
   -1.1060    1.8520   -2.5820 O   0  0  0  0  0  0  0  0  0  0  0  0
  2  1  1  1
  2  3  1  0
  2 19  1  0
  3  4  2  0
  4  5  1  0
  5  6  1  0
  6  7  1  0
  7  8  1  0
  8  9  2  0
  8 10  1  0
 10 11  2  0
 11 12  1  0
 11 23  1  0
 12 13  1  6
 12 20  1  0
 13 14  1  0
 14 15  2  0
 14 16  1  0
 16 17  1  0
 16 18  1  0
 18 17  1  1
 18 19  1  0
 20 21  2  0
 20 33  1  0
 21 22  1  0
 21 26  1  0
 22 23  1  0
 23 24  1  1
 23 25  1  0
 26 27  1  1
 26 31  1  0
 27 28  1  0
 28 29  1  0
 29 30  1  0
 31 30  1  1
 31 32  1  0
 32 33  1  0
 33 34  2  0
M  END
