
     RDKit          3D

 34 37  0  0  0  0  0  0  0  0999 V2000
   -7.6110   -2.4070   -0.3930 N   0  0  0  0  0  0  0  0  0  0  0  0
   -6.3210   -1.9790   -0.0150 C   0  0  0  0  0  0  0  0  0  0  0  0
   -5.5900   -2.7570    0.8020 N   0  0  0  0  0  0  0  0  0  0  0  0
   -4.3350   -2.3980    1.1720 C   0  0  0  0  0  0  0  0  0  0  0  0
   -3.8020   -1.2500    0.7290 N   0  0  0  0  0  0  0  0  0  0  0  0
   -4.4710   -0.4310   -0.0800 C   0  0  0  0  0  0  0  0  0  0  0  0
   -5.7460   -0.8050   -0.4570 C   0  0  0  0  0  0  0  0  0  0  0  0
   -6.1950    0.1600   -1.2530 N   0  0  0  0  0  0  0  0  0  0  0  0
   -5.2080    1.0980   -1.3500 C   0  0  0  0  0  0  0  0  0  0  0  0
   -4.1340    0.7390   -0.6290 N   0  0  0  0  0  0  0  0  0  0  0  0
   -2.9150    1.5170   -0.5230 C   0  0  2  0  0  0  0  0  0  0  0  0
   -1.9510    1.0860   -1.4180 O   0  0  0  0  0  0  0  0  0  0  0  0
   -0.7320    1.4920   -0.9850 C   0  0  2  0  0  0  0  0  0  0  0  0
    0.3540    0.4660   -1.1790 C   0  0  0  0  0  0  0  0  0  0  0  0
    0.0980   -0.7530   -0.5080 O   0  0  0  0  0  0  0  0  0  0  0  0
    1.4380   -1.7330   -0.8960 S   0  0  1  0  0  0  0  0  0  0  0  0
    1.1240   -3.1660   -0.5990 O   0  0  0  0  0  0  0  0  0  0  0  0
    1.6950   -1.5330   -2.3720 O   0  0  0  0  0  0  0  0  0  0  0  0
    2.7790   -1.1200   -0.0300 N   0  0  0  0  0  0  0  0  0  0  0  0
    3.9320   -0.5720   -0.7050 C   0  0  0  0  0  0  0  0  0  0  0  0
    3.8990   -0.5730   -1.9770 O   0  0  0  0  0  0  0  0  0  0  0  0
    5.0790   -0.0310    0.0050 C   0  0  0  0  0  0  0  0  0  0  0  0
    5.2200    1.3430    0.1960 C   0  0  0  0  0  0  0  0  0  0  0  0
    6.2550    1.8920    0.9300 C   0  0  0  0  0  0  0  0  0  0  0  0
    7.2050    1.0370    1.5050 C   0  0  0  0  0  0  0  0  0  0  0  0
    7.0680   -0.3240    1.3130 C   0  0  0  0  0  0  0  0  0  0  0  0
    6.0310   -0.8290    0.5820 C   0  0  0  0  0  0  0  0  0  0  0  0
    5.9270   -2.2490    0.3600 N   0  0  0  0  0  0  0  0  0  0  0  0
    6.4190   -3.0980    1.1340 O   0  0  0  0  0  0  0  0  0  0  0  0
    5.2490   -2.6590   -0.7830 O   0  0  0  0  0  0  0  0  0  0  0  0
   -0.8200    1.8160    0.4730 C   0  0  1  0  0  0  0  0  0  0  0  0
   -0.7730    3.2050    0.7390 O   0  0  0  0  0  0  0  0  0  0  0  0
   -2.2310    1.3650    0.8040 C   0  0  1  0  0  0  0  0  0  0  0  0
   -2.8090    2.1740    1.7800 O   0  0  0  0  0  0  0  0  0  0  0  0
  1  2  1  0
  2  3  2  0
  2  7  1  0
  3  4  1  0
  4  5  2  0
  5  6  1  0
  6  7  2  0
  6 10  1  0
  7  8  1  0
  8  9  2  0
  9 10  1  0
 11 10  1  1
 11 12  1  0
 11 33  1  0
 12 13  1  0
 13 14  1  1
 13 31  1  0
 14 15  1  0
 15 16  1  0
 16 17  2  0
 16 18  2  0
 16 19  1  1
 19 20  1  0
 20 21  2  0
 20 22  1  0
 22 23  2  0
 22 27  1  0
 23 24  1  0
 24 25  2  0
 25 26  1  0
 26 27  2  0
 27 28  1  0
 28 29  2  0
 28 30  1  0
 31 32  1  6
 31 33  1  0
 33 34  1  1
M  CHG  2  28   1  30  -1
M  END
