
     RDKit          3D

 34 38  0  0  0  0  0  0  0  0999 V2000
    8.4160    1.8990    1.2030 C   0  0  0  0  0  0  0  0  0  0  0  0
    7.1870    1.2230    0.6820 C   0  0  0  0  0  0  0  0  0  0  0  0
    5.9390    1.4550    1.2180 C   0  0  0  0  0  0  0  0  0  0  0  0
    4.7990    0.8070    0.7130 C   0  0  0  0  0  0  0  0  0  0  0  0
    3.4550    1.0550    1.2870 C   0  0  0  0  0  0  0  0  0  0  0  0
    4.9100   -0.0740   -0.3320 C   0  0  0  0  0  0  0  0  0  0  0  0
    3.7390   -0.7820   -0.8980 C   0  0  0  0  0  0  0  0  0  0  0  0
    3.1470   -0.2040   -1.8360 O   0  0  0  0  0  0  0  0  0  0  0  0
    3.3000   -2.0630   -0.4040 C   0  0  0  0  0  0  0  0  0  0  0  0
    2.0750   -2.6090   -1.0360 C   0  0  0  0  0  0  0  0  0  0  0  0
    0.8650   -1.8480   -0.8850 N   0  0  0  0  0  0  0  0  0  0  0  0
    0.1940   -0.9140   -1.7020 C   0  0  0  0  0  0  0  0  0  0  0  0
    0.5060   -0.5310   -2.8680 O   0  0  0  0  0  0  0  0  0  0  0  0
   -0.9860   -0.4100   -1.0040 C   0  0  0  0  0  0  0  0  0  0  0  0
   -1.0720   -0.9760    0.1740 C   0  0  0  0  0  0  0  0  0  0  0  0
   -2.1410   -0.7230    1.1710 C   0  0  0  0  0  0  0  0  0  0  0  0
   -3.0570    0.3590    0.7720 C   0  0  1  0  0  0  0  0  0  0  0  0
   -2.9170    0.9370   -0.5700 C   0  0  0  0  0  0  0  0  0  0  0  0
   -1.9770    0.6080   -1.4010 C   0  0  0  0  0  0  0  0  0  0  0  0
   -3.9160    1.9130   -0.9800 C   0  0  0  0  0  0  0  0  0  0  0  0
   -3.6660    2.7890   -1.8190 O   0  0  0  0  0  0  0  0  0  0  0  0
   -5.2610    1.7980   -0.3330 C   0  0  2  0  0  0  0  0  0  0  0  0
   -5.2700    2.3600    1.0700 C   0  0  0  0  0  0  0  0  0  0  0  0
   -4.9900    1.2090    2.0030 C   0  0  0  0  0  0  0  0  0  0  0  0
   -4.5210    0.0850    1.0990 C   0  0  2  0  0  0  0  0  0  0  0  0
   -4.7540   -1.2270    1.7690 C   0  0  0  0  0  0  0  0  0  0  0  0
   -5.4280    0.2950   -0.0860 C   0  0  2  0  0  0  0  0  0  0  0  0
   -5.0580   -0.5130   -1.2780 C   0  0  0  0  0  0  0  0  0  0  0  0
   -6.8420    0.0480    0.2880 C   0  0  0  0  0  0  0  0  0  0  0  0
    0.0620   -1.8950    0.3180 C   0  0  0  0  0  0  0  0  0  0  0  0
    0.3340   -2.6270    1.3070 O   0  0  0  0  0  0  0  0  0  0  0  0
    6.1450   -0.3210   -0.8820 C   0  0  0  0  0  0  0  0  0  0  0  0
    6.2530   -1.2710   -2.0080 C   0  0  0  0  0  0  0  0  0  0  0  0
    7.2760    0.3330   -0.3680 C   0  0  0  0  0  0  0  0  0  0  0  0
  1  2  1  0
  2  3  2  0
  2 34  1  0
  3  4  1  0
  4  5  1  0
  4  6  2  0
  6  7  1  0
  6 32  1  0
  7  8  2  0
  7  9  1  0
  9 10  1  0
 10 11  1  0
 11 12  1  0
 11 30  1  0
 12 13  2  0
 12 14  1  0
 14 15  2  0
 14 19  1  0
 15 16  1  0
 15 30  1  0
 17 16  1  6
 17 18  1  0
 17 25  1  0
 18 19  2  0
 18 20  1  0
 20 21  2  0
 20 22  1  0
 22 23  1  1
 22 27  1  0
 23 24  1  0
 24 25  1  0
 25 26  1  1
 25 27  1  0
 27 28  1  6
 27 29  1  0
 30 31  2  0
 32 33  1  0
 32 34  2  0
M  END
