
     RDKit          3D

 13 13  0  0  0  0  0  0  0  0999 V2000
   -3.1510    1.7940   -0.7660 O   0  0  0  0  0  0  0  0  0  0  0  0
   -3.2150    0.4190   -0.5270 C   0  0  0  0  0  0  0  0  0  0  0  0
   -2.1070   -0.0240    0.4170 C   0  0  0  0  0  0  0  0  0  0  0  0
   -0.7480    0.2920   -0.1800 C   0  0  2  0  0  0  0  0  0  0  0  0
   -0.5930   -0.4140   -1.4590 C   0  0  0  0  0  0  0  0  0  0  0  0
    0.7360   -0.9270   -1.8470 C   0  0  0  0  0  0  0  0  0  0  0  0
    1.7790   -0.1460   -1.2290 N   0  0  0  0  0  0  0  0  0  0  0  0
    1.6800    0.0270    0.2080 C   0  0  0  0  0  0  0  0  0  0  0  0
    2.8090    0.1130    0.8620 C   0  0  0  0  0  0  0  0  0  0  0  0
    2.9290    0.2880    2.3230 C   0  0  0  0  0  0  0  0  0  0  0  0
    1.7600    0.3500    3.0070 F   0  0  0  0  0  0  0  0  0  0  0  0
    0.3580    0.1080    0.8410 C   0  0  2  0  0  0  0  0  0  0  0  0
    0.0850   -0.9920    1.6470 O   0  0  0  0  0  0  0  0  0  0  0  0
  1  2  1  0
  2  3  1  0
  4  3  1  1
  4  5  1  0
  4 12  1  0
  5  6  1  0
  6  7  1  0
  7  8  1  0
  8  9  2  3
  8 12  1  0
  9 10  1  0
 10 11  1  0
 12 13  1  6
M  END
