
     RDKit          3D

 12 12  0  0  0  0  0  0  0  0999 V2000
   -1.8740    0.2430    1.2860 C   0  0  0  0  0  0  0  0  0  0  0  0
   -1.6710    0.4480   -0.1650 C   0  0  1  0  0  0  0  0  0  0  0  0
   -2.4390   -0.6540   -0.9090 C   0  0  0  0  0  0  0  0  0  0  0  0
   -2.3130    1.6950   -0.5430 N   0  0  0  0  0  0  0  0  0  0  0  0
   -0.2740    0.4800   -0.6440 C   0  0  0  0  0  0  0  0  0  0  0  0
    0.5200   -0.7690   -0.3830 C   0  0  1  0  0  0  0  0  0  0  0  0
   -0.1270   -1.8310   -1.0370 O   0  0  0  0  0  0  0  0  0  0  0  0
    1.8860   -0.6740   -0.9980 C   0  0  0  0  0  0  0  0  0  0  0  0
    2.8470    0.1610   -0.1990 C   0  0  0  0  0  0  0  0  0  0  0  0
    2.8270   -0.3090    1.2590 C   0  0  0  0  0  0  0  0  0  0  0  0
    1.3750   -0.2190    1.6930 C   0  0  0  0  0  0  0  0  0  0  0  0
    0.6370   -1.0940    0.9470 O   0  0  0  0  0  0  0  0  0  0  0  0
  2  1  1  1
  2  3  1  0
  2  4  1  0
  2  5  1  0
  5  6  1  0
  6  7  1  6
  6  8  1  0
  6 12  1  0
  8  9  1  0
  9 10  1  0
 10 11  1  0
 11 12  1  0
M  CHG  1   4   1
M  END
