
     RDKit          3D

 11 12  0  0  0  0  0  0  0  0999 V2000
    3.3770    0.1050    0.3100 C   0  0  0  0  0  0  0  0  0  0  0  0
    2.5320   -0.8790    0.0330 C   0  0  0  0  0  0  0  0  0  0  0  0
    1.1720   -0.3420    0.0420 C   0  0  0  0  0  0  0  0  0  0  0  0
    0.0800   -1.0360   -0.1970 C   0  0  0  0  0  0  0  0  0  0  0  0
   -1.2580   -0.4410   -0.1760 C   0  0  0  0  0  0  0  0  0  0  0  0
   -2.4210   -1.0480    0.3040 C   0  0  0  0  0  0  0  0  0  0  0  0
   -3.4440   -0.1490    0.1370 C   0  0  0  0  0  0  0  0  0  0  0  0
   -2.8990    0.9790   -0.4330 C   0  0  0  0  0  0  0  0  0  0  0  0
   -1.6250    0.7430   -0.5880 O   0  0  0  0  0  0  0  0  0  0  0  0
    1.3130    1.0720    0.3550 C   0  0  0  0  0  0  0  0  0  0  0  0
    2.5970    1.3210    0.5110 C   0  0  0  0  0  0  0  0  0  0  0  0
  1  2  2  0
  1 11  1  0
  2  3  1  0
  3  4  2  3
  3 10  1  0
  4  5  1  0
  5  6  2  0
  5  9  1  0
  6  7  1  0
  7  8  2  0
  8  9  1  0
 10 11  2  0
M  END
