
     RDKit          3D

 13 13  0  0  0  0  0  0  0  0999 V2000
   -3.9240    0.0580   -0.0450 C   0  0  0  0  0  0  0  0  0  0  0  0
   -2.5530   -0.5170   -0.2930 C   0  0  1  0  0  0  0  0  0  0  0  0
   -1.7970    0.1310   -1.4350 C   0  0  0  0  0  0  0  0  0  0  0  0
   -0.5520   -0.0410   -0.5890 C   0  0  1  0  0  0  0  0  0  0  0  0
   -0.0620   -1.3490   -0.7120 O   0  0  0  0  0  0  0  0  0  0  0  0
    0.4450    1.0250   -0.7180 C   0  0  0  0  0  0  0  0  0  0  0  0
    1.5520    1.0960    0.0020 C   0  0  0  0  0  0  0  0  0  0  0  0
    2.4360    2.1100   -0.1650 F   0  0  0  0  0  0  0  0  0  0  0  0
    1.9070    0.0790    1.0380 C   0  0  0  0  0  0  0  0  0  0  0  0
    3.2230   -0.5740    0.6860 C   0  0  0  0  0  0  0  0  0  0  0  0
    3.9470   -0.2070   -0.4840 N   0  0  0  0  0  0  0  0  0  0  0  0
    3.7040   -1.4370    1.3970 O   0  0  0  0  0  0  0  0  0  0  0  0
   -1.4700    0.0600    0.6200 C   0  0  0  0  0  0  0  0  0  0  0  0
  2  1  1  1
  2  3  1  0
  2 13  1  0
  3  4  1  0
  4  5  1  6
  4  6  1  0
  4 13  1  0
  6  7  2  3
  7  8  1  0
  7  9  1  0
  9 10  1  0
 10 11  1  0
 10 12  2  0
M  CHG  1  11   1
M  END
