
     RDKit          3D

 13 12  0  0  0  0  0  0  0  0999 V2000
    1.6690   -0.1320   -2.3760 C   0  0  0  0  0  0  0  0  0  0  0  0
    0.4930   -0.3580   -1.8240 C   0  0  0  0  0  0  0  0  0  0  0  0
   -0.2460   -0.9780   -3.0400 O   0  0  0  0  0  0  0  0  0  0  0  0
   -0.3090   -0.3130   -0.6910 C   0  0  0  0  0  0  0  0  0  0  0  0
   -0.0010   -0.0120    0.6870 C   0  0  0  0  0  0  0  0  0  0  0  0
    1.0880    0.2940    1.2890 C   0  0  0  0  0  0  0  0  0  0  0  0
    2.4430    0.4580    0.7810 C   0  0  0  0  0  0  0  0  0  0  0  0
    0.9950    0.5560    2.7830 C   0  0  0  0  0  0  0  0  0  0  0  0
    1.4600    1.8980    2.8880 O   0  0  0  0  0  0  0  0  0  0  0  0
   -1.6180   -0.6490   -0.9000 C   0  0  0  0  0  0  0  0  0  0  0  0
   -1.9140   -0.9610   -2.2250 F   0  0  0  0  0  0  0  0  0  0  0  0
   -2.6670   -0.7850    0.0790 C   0  0  0  0  0  0  0  0  0  0  0  0
   -3.6780    0.2410   -0.2180 N   0  0  0  0  0  0  0  0  0  0  0  0
  1  2  2  0
  2  3  1  0
  2  4  1  0
  4  5  1  0
  4 10  2  3
  5  6  2  3
  6  7  1  0
  6  8  1  0
  8  9  1  0
 10 11  1  0
 10 12  1  0
 12 13  1  0
M  END
