
     RDKit          3D

 13 13  0  0  0  0  0  0  0  0999 V2000
   -3.6060    1.0260    0.4820 N   0  0  0  0  0  0  0  0  0  0  0  0
   -2.3340    1.0490   -0.1810 C   0  0  0  0  0  0  0  0  0  0  0  0
   -1.6650   -0.2680   -0.2300 C   0  0  0  0  0  0  0  0  0  0  0  0
   -2.0340   -1.4360    0.2250 C   0  0  0  0  0  0  0  0  0  0  0  0
   -3.1790   -1.6840    0.8740 F   0  0  0  0  0  0  0  0  0  0  0  0
   -1.0110   -2.4680   -0.0720 C   0  0  0  0  0  0  0  0  0  0  0  0
    0.0220   -1.6980   -0.7810 C   0  0  0  0  0  0  0  0  0  0  0  0
   -0.3660   -0.4520   -0.8620 C   0  0  0  0  0  0  0  0  0  0  0  0
    0.4190    0.5230   -1.4880 O   0  0  0  0  0  0  0  0  0  0  0  0
    1.4170    1.2080   -0.7210 C   0  0  0  0  0  0  0  0  0  0  0  0
    2.3920    0.1680   -0.2030 C   0  0  0  0  0  0  0  0  0  0  0  0
    3.4680    0.8520    0.6170 C   0  0  0  0  0  0  0  0  0  0  0  0
    4.3480   -0.1150    1.0820 O   0  0  0  0  0  0  0  0  0  0  0  0
  1  2  1  0
  2  3  1  0
  3  4  2  0
  3  8  1  0
  4  5  1  0
  4  6  1  0
  6  7  1  0
  7  8  2  0
  8  9  1  0
  9 10  1  0
 10 11  1  0
 11 12  1  0
 12 13  1  0
M  CHG  1   1   1
M  END
