
     RDKit          3D

 32 33  0  0  0  0  0  0  0  0999 V2000
   -6.7920   -2.9230   -2.4700 C   0  0  0  0  0  0  0  0  0  0  0  0
   -6.4810   -1.7220   -3.0400 O   0  0  0  0  0  0  0  0  0  0  0  0
   -6.1470   -0.7520   -2.1340 C   0  0  0  0  0  0  0  0  0  0  0  0
   -4.8520   -0.9370   -1.4760 C   0  0  0  0  0  0  0  0  0  0  0  0
   -3.9080   -1.8820   -1.7710 C   0  0  0  0  0  0  0  0  0  0  0  0
   -2.6840   -1.9670   -1.1390 C   0  0  0  0  0  0  0  0  0  0  0  0
   -2.3440   -1.0610   -0.1400 C   0  0  0  0  0  0  0  0  0  0  0  0
   -1.1070   -1.1430    0.5370 N   0  0  0  0  0  0  0  0  0  0  0  0
   -0.5920   -0.0240    1.2870 C   0  0  0  0  0  0  0  0  0  0  0  0
   -0.3120    1.1030    0.3360 C   0  0  0  0  0  0  0  0  0  0  0  0
    0.6330    0.7350   -0.5950 O   0  0  0  0  0  0  0  0  0  0  0  0
    1.8820    0.5800    0.0560 C   0  0  2  0  0  0  0  0  0  0  0  0
    2.6910    1.7530   -0.4350 C   0  0  0  0  0  0  0  0  0  0  0  0
    2.4330   -0.7690   -0.1100 C   0  0  0  0  0  0  0  0  0  0  0  0
    3.6730   -1.0360    0.5160 N   0  0  0  0  0  0  0  0  0  0  0  0
    4.9200   -0.4880    0.1990 C   0  0  0  0  0  0  0  0  0  0  0  0
    5.0590    0.3050   -0.7480 O   0  0  0  0  0  0  0  0  0  0  0  0
    6.0860   -0.8350    0.9770 N   0  0  0  0  0  0  0  0  0  0  0  0
    7.3160   -0.2280    0.5830 C   0  0  0  0  0  0  0  0  0  0  0  0
    8.3000   -1.0120    0.2240 C   0  0  0  0  0  0  0  0  0  0  0  0
    9.6030   -0.4680   -0.1970 C   0  0  1  0  0  0  0  0  0  0  0  0
    9.9480   -0.9540   -1.4740 O   0  0  0  0  0  0  0  0  0  0  0  0
    9.6340    0.9240   -0.1570 O   0  0  0  0  0  0  0  0  0  0  0  0
    8.6080    1.7380    0.2170 C   0  0  0  0  0  0  0  0  0  0  0  0
    7.4410    1.2110    0.5910 C   0  0  0  0  0  0  0  0  0  0  0  0
   -3.2830   -0.1190    0.1550 C   0  0  0  0  0  0  0  0  0  0  0  0
   -4.5200   -0.0280   -0.4790 C   0  0  0  0  0  0  0  0  0  0  0  0
   -5.4060    0.9510   -0.1230 O   0  0  0  0  0  0  0  0  0  0  0  0
   -4.9660    2.0890    1.1370 P   0  0  0  0  0  0  0  0  0  0  0  0
   -5.0200    1.2390    2.7890 C   0  0  0  0  0  0  0  0  0  0  0  0
   -6.1130    3.3920    1.0800 O   0  0  0  0  0  0  0  0  0  0  0  0
   -7.3320    2.9430    0.5470 C   0  0  0  0  0  0  0  0  0  0  0  0
  1  2  1  0
  2  3  1  0
  3  4  1  0
  4  5  2  0
  4 27  1  0
  5  6  1  0
  6  7  2  0
  7  8  1  0
  7 26  1  0
  8  9  1  0
  9 10  1  0
 10 11  1  0
 11 12  1  0
 12 13  1  6
 12 14  1  0
 14 15  1  0
 15 16  1  0
 16 17  2  0
 16 18  1  0
 18 19  1  0
 19 20  2  0
 19 25  1  0
 20 21  1  0
 21 22  1  6
 21 23  1  0
 23 24  1  0
 24 25  2  0
 26 27  2  0
 27 28  1  0
 28 29  1  0
 29 30  1  0
 29 31  1  0
 31 32  1  0
M  END
