
     RDKit          3D

 32 33  0  0  0  0  0  0  0  0999 V2000
   -3.6970   -4.5310    1.0540 C   0  0  0  0  0  0  0  0  0  0  0  0
   -2.7580   -4.7300   -0.1090 C   0  0  0  0  0  0  0  0  0  0  0  0
   -2.3760   -3.5930   -0.7510 O   0  0  0  0  0  0  0  0  0  0  0  0
   -3.3520   -2.8240   -1.3040 C   0  0  2  0  0  0  0  0  0  0  0  0
   -3.1220   -2.6410   -2.8210 C   0  0  0  0  0  0  0  0  0  0  0  0
   -1.7390   -1.9830   -2.8530 C   0  0  0  0  0  0  0  0  0  0  0  0
   -1.1330   -2.0450   -1.6150 O   0  0  0  0  0  0  0  0  0  0  0  0
   -1.7270   -1.0500   -0.7310 C   0  0  1  0  0  0  0  0  0  0  0  0
   -1.2290   -1.2640    0.6210 C   0  0  0  0  0  0  0  0  0  0  0  0
   -1.6790   -0.3890    1.6870 C   0  0  0  0  0  0  0  0  0  0  0  0
   -1.2340   -0.7750    2.9020 O   0  0  0  0  0  0  0  0  0  0  0  0
   -2.4560    0.7510    1.7910 N   0  0  0  0  0  0  0  0  0  0  0  0
   -2.6620    1.2220    3.2290 C   0  0  0  0  0  0  0  0  0  0  0  0
   -3.0770    1.6210    0.8530 C   0  0  0  0  0  0  0  0  0  0  0  0
   -1.9810    3.0780    0.3750 P   0  0  0  0  0  0  0  0  0  0  0  0
   -2.4870    3.7160   -1.1660 O   0  0  0  0  0  0  0  0  0  0  0  0
   -2.1080    4.3190    1.5580 O   0  0  0  0  0  0  0  0  0  0  0  0
   -1.3710    0.1570   -1.3150 N   0  0  0  0  0  0  0  0  0  0  0  0
   -0.0920    0.5360   -1.6730 C   0  0  0  0  0  0  0  0  0  0  0  0
    0.9780    0.8270   -0.7010 C   0  0  0  0  0  0  0  0  0  0  0  0
    2.1620    1.2190   -1.4480 N   0  0  0  0  0  0  0  0  0  0  0  0
    3.3330    1.5370   -0.7400 C   0  0  0  0  0  0  0  0  0  0  0  0
    3.4000    1.4900    0.6540 C   0  0  0  0  0  0  0  0  0  0  0  0
    4.5670    1.8070    1.3140 C   0  0  0  0  0  0  0  0  0  0  0  0
    5.6980    2.1790    0.6180 C   0  0  0  0  0  0  0  0  0  0  0  0
    6.9680    2.5280    1.2980 C   0  0  0  0  0  0  0  0  0  0  0  0
    7.8060    1.3200    1.4760 C   0  0  0  0  0  0  0  0  0  0  0  0
    7.3680    0.2010    1.0530 O   0  0  0  0  0  0  0  0  0  0  0  0
    9.0480    1.3600    2.0840 O   0  0  0  0  0  0  0  0  0  0  0  0
    5.5960    2.2140   -0.7510 C   0  0  0  0  0  0  0  0  0  0  0  0
    4.4650    1.9090   -1.4500 C   0  0  0  0  0  0  0  0  0  0  0  0
   -3.2010   -1.4160   -0.7730 C   0  0  0  0  0  0  0  0  0  0  0  0
  1  2  1  0
  2  3  1  0
  4  3  1  1
  4  5  1  0
  4 32  1  0
  5  6  1  0
  6  7  1  0
  7  8  1  0
  8  9  1  1
  8 18  1  0
  8 32  1  0
  9 10  1  0
 10 11  2  0
 10 12  1  0
 12 13  1  0
 12 14  1  0
 14 15  1  0
 15 16  1  0
 15 17  1  0
 18 19  1  0
 19 20  1  0
 20 21  1  0
 21 22  1  0
 22 23  2  0
 22 31  1  0
 23 24  1  0
 24 25  2  0
 25 26  1  0
 25 30  1  0
 26 27  1  0
 27 28  2  0
 27 29  1  0
 30 31  2  0
M  END
