
     RDKit          3D

 32 33  0  0  0  0  0  0  0  0999 V2000
    9.6440   -0.5730    1.1960 C   0  0  0  0  0  0  0  0  0  0  0  0
    8.7500   -0.5180   -0.0380 C   0  0  0  0  0  0  0  0  0  0  0  0
    7.4790    0.1610    0.3650 C   0  0  0  0  0  0  0  0  0  0  0  0
    6.4980    0.2800   -0.7790 C   0  0  0  0  0  0  0  0  0  0  0  0
    5.2950    0.9510   -0.2910 N   0  0  0  0  0  0  0  0  0  0  0  0
    4.2030    1.1870   -1.1900 C   0  0  0  0  0  0  0  0  0  0  0  0
    4.3860    0.7900   -2.3600 O   0  0  0  0  0  0  0  0  0  0  0  0
    3.0040    1.8600   -0.6680 C   0  0  2  0  0  0  0  0  0  0  0  0
    3.0050    2.0100    0.6930 O   0  0  0  0  0  0  0  0  0  0  0  0
    2.9660    0.8720    1.4390 C   0  0  0  0  0  0  0  0  0  0  0  0
    1.6000    0.5190    1.9690 C   0  0  0  0  0  0  0  0  0  0  0  0
    0.5790    0.7260    1.0330 O   0  0  0  0  0  0  0  0  0  0  0  0
    0.6640    0.7670   -0.3520 C   0  0  0  0  0  0  0  0  0  0  0  0
   -0.4810    0.2370   -0.9500 C   0  0  0  0  0  0  0  0  0  0  0  0
   -1.5410   -0.2570   -0.1430 N   0  0  0  0  0  0  0  0  0  0  0  0
   -2.7440   -0.8150   -0.6840 C   0  0  0  0  0  0  0  0  0  0  0  0
   -3.6920   -1.2570    0.3790 C   0  0  1  0  0  0  0  0  0  0  0  0
   -4.0580   -0.1250    1.3310 C   0  0  0  0  0  0  0  0  0  0  0  0
   -4.7150    1.0100    0.5790 C   0  0  0  0  0  0  0  0  0  0  0  0
   -5.0540    2.0660    1.4780 N   0  0  0  0  0  0  0  0  0  0  0  0
   -5.6860    3.2550    1.0200 C   0  0  0  0  0  0  0  0  0  0  0  0
   -5.9450    3.3640   -0.2030 O   0  0  0  0  0  0  0  0  0  0  0  0
   -6.0160    4.2860    1.9090 O   0  0  0  0  0  0  0  0  0  0  0  0
   -4.8590   -1.7980   -0.0950 O   0  0  0  0  0  0  0  0  0  0  0  0
   -5.0730   -3.1060    0.3250 C   0  0  0  0  0  0  0  0  0  0  0  0
   -6.3800   -3.5980   -0.2540 C   0  0  0  0  0  0  0  0  0  0  0  0
   -7.5380   -2.7400    0.2060 C   0  0  0  0  0  0  0  0  0  0  0  0
   -7.3200   -1.4500   -0.2110 O   0  0  0  0  0  0  0  0  0  0  0  0
   -0.5460    0.2120   -2.3140 C   0  0  0  0  0  0  0  0  0  0  0  0
    0.4960    0.7000   -3.0560 C   0  0  0  0  0  0  0  0  0  0  0  0
    1.6150    1.2190   -2.4980 C   0  0  0  0  0  0  0  0  0  0  0  0
    1.7210    1.2610   -1.1050 C   0  0  0  0  0  0  0  0  0  0  0  0
  1  2  1  0
  2  3  1  0
  3  4  1  0
  4  5  1  0
  5  6  1  0
  6  7  2  0
  8  6  1  1
  8  9  1  0
  8 32  1  0
  9 10  1  0
 10 11  1  0
 11 12  1  0
 12 13  1  0
 13 14  2  0
 13 32  1  0
 14 15  1  0
 14 29  1  0
 15 16  1  0
 17 16  1  6
 17 18  1  0
 17 24  1  0
 18 19  1  0
 19 20  1  0
 20 21  1  0
 21 22  2  0
 21 23  1  0
 24 25  1  0
 25 26  1  0
 26 27  1  0
 27 28  1  0
 29 30  2  0
 30 31  1  0
 31 32  2  0
M  END
