
     RDKit          3D

 29 30  0  0  0  0  0  0  0  0999 V2000
    1.2790   -1.0650    1.6610 C   0  0  0  0  0  0  0  0  0  0  0  0
    0.8670   -0.2110    0.5770 N   0  0  0  0  0  0  0  0  0  0  0  0
    1.7580    0.5070   -0.2700 C   0  0  0  0  0  0  0  0  0  0  0  0
    2.6100   -0.3630   -1.1690 C   0  0  1  0  0  0  0  0  0  0  0  0
    3.4160   -1.2070   -0.4100 O   0  0  0  0  0  0  0  0  0  0  0  0
    5.0630   -0.7820   -0.6680 P   0  0  0  0  0  0  0  0  0  0  0  0
    6.1270   -1.6730    0.3850 O   0  0  0  0  0  0  0  0  0  0  0  0
    6.3800   -0.9480    1.4710 O   0  0  0  0  0  0  0  0  0  0  0  0
    5.2900    1.3930   -0.3610 P   0  0  0  0  0  0  0  0  0  0  0  0
    4.9200    1.8010    1.3070 O   0  0  0  0  0  0  0  0  0  0  0  0
    6.9680    1.7810   -0.6370 O   0  0  0  0  0  0  0  0  0  0  0  0
    1.5970   -1.3640   -2.3580 P   0  0  0  0  0  0  0  0  0  0  0  0
    1.8640   -2.9000   -2.4790 O   0  0  0  0  0  0  0  0  0  0  0  0
   -0.5510   -0.0810    0.3480 C   0  0  0  0  0  0  0  0  0  0  0  0
   -1.1120    1.1310    0.2110 N   0  0  0  0  0  0  0  0  0  0  0  0
   -2.4390    1.3250   -0.0150 C   0  0  0  0  0  0  0  0  0  0  0  0
   -3.2570    0.2240   -0.1110 C   0  0  0  0  0  0  0  0  0  0  0  0
   -2.6780   -1.0340    0.0300 C   0  0  0  0  0  0  0  0  0  0  0  0
   -3.5630   -2.1860   -0.0830 C   0  0  0  0  0  0  0  0  0  0  0  0
   -4.7880   -2.0770   -0.3200 O   0  0  0  0  0  0  0  0  0  0  0  0
   -2.9950   -3.4740    0.0840 N   0  0  0  0  0  0  0  0  0  0  0  0
   -3.7040   -4.6270    0.0030 O   0  0  0  0  0  0  0  0  0  0  0  0
   -1.3600   -1.1540    0.2530 N   0  0  0  0  0  0  0  0  0  0  0  0
   -4.5500    0.6620   -0.3410 O   0  0  0  0  0  0  0  0  0  0  0  0
   -4.5950    2.0330   -0.3980 N   0  0  0  0  0  0  0  0  0  0  0  0
   -5.7270    2.8680   -0.6230 C   0  0  0  0  0  0  0  0  0  0  0  0
   -5.5850    4.1110   -0.6410 O   0  0  0  0  0  0  0  0  0  0  0  0
   -6.9920    2.3460   -0.8240 O   0  0  0  0  0  0  0  0  0  0  0  0
   -3.2630    2.5390   -0.1850 C   0  0  0  0  0  0  0  0  0  0  0  0
  1  2  1  0
  2  3  1  0
  2 14  1  0
  4  3  1  1
  4  5  1  0
  4 12  1  0
  5  6  1  0
  6  7  1  0
  6  9  1  0
  7  8  1  0
  9 10  1  0
  9 11  1  0
 12 13  2  0
 14 15  2  0
 14 23  1  0
 15 16  1  0
 16 17  2  0
 16 29  1  0
 17 18  1  0
 17 24  1  0
 18 19  1  0
 18 23  2  0
 19 20  2  0
 19 21  1  0
 21 22  1  0
 24 25  1  0
 25 26  1  0
 25 29  1  0
 26 27  2  0
 26 28  1  0
M  END
