
     RDKit          3D

 29 30  0  0  0  0  0  0  0  0999 V2000
    4.6860    3.5770   -0.2880 O   0  0  0  0  0  0  0  0  0  0  0  0
    3.1630    3.8390   -0.5310 P   0  0  0  0  0  0  0  0  0  0  0  0
    2.2090    2.4740   -1.0360 O   0  0  0  0  0  0  0  0  0  0  0  0
    1.3500    1.9000    0.3490 P   0  0  0  0  0  0  0  0  0  0  0  0
    1.5790    2.9480    1.7260 O   0  0  0  0  0  0  0  0  0  0  0  0
    1.8450   -0.1430    0.8730 P   0  0  0  0  0  0  0  0  0  0  0  0
    0.4000   -1.2650    0.9450 C   0  0  0  0  0  0  0  0  0  0  0  0
   -0.8170   -0.6660    0.2360 C   0  0  0  0  0  0  0  0  0  0  0  0
   -0.8560   -1.0200   -0.9650 O   0  0  0  0  0  0  0  0  0  0  0  0
   -1.7140    0.1630    0.9200 N   0  0  0  0  0  0  0  0  0  0  0  0
   -1.4030    0.3730    2.3690 C   0  0  0  0  0  0  0  0  0  0  0  0
   -2.1280   -0.6260    3.2010 C   0  0  0  0  0  0  0  0  0  0  0  0
   -1.8420   -0.4460    4.5550 O   0  0  0  0  0  0  0  0  0  0  0  0
   -2.8380    0.8020    0.4590 C   0  0  0  0  0  0  0  0  0  0  0  0
   -3.4370    1.4930    1.4710 O   0  0  0  0  0  0  0  0  0  0  0  0
   -3.6120    0.9980   -0.7310 C   0  0  0  0  0  0  0  0  0  0  0  0
   -3.3400    0.4730   -1.9910 N   0  0  0  0  0  0  0  0  0  0  0  0
   -4.3000    0.8240   -3.0450 C   0  0  0  0  0  0  0  0  0  0  0  0
   -5.2760    1.5450   -2.7830 O   0  0  0  0  0  0  0  0  0  0  0  0
   -4.1180    0.3530   -4.3260 O   0  0  0  0  0  0  0  0  0  0  0  0
    3.3060   -0.8060    0.0050 C   0  0  2  0  0  0  0  0  0  0  0  0
    3.3810   -0.4100   -1.3840 N   0  0  0  0  0  0  0  0  0  0  0  0
    4.0190   -1.4810   -2.0720 C   0  0  0  0  0  0  0  0  0  0  0  0
    4.6450   -1.8420   -3.1600 N   0  0  0  0  0  0  0  0  0  0  0  0
    4.9810   -3.1680   -3.0690 O   0  0  0  0  0  0  0  0  0  0  0  0
    4.5820   -3.6920   -1.9270 O   0  0  0  0  0  0  0  0  0  0  0  0
    3.9710   -2.6610   -1.2670 N   0  0  0  0  0  0  0  0  0  0  0  0
    3.2900   -2.2780   -0.0770 C   0  0  0  0  0  0  0  0  0  0  0  0
    2.7820   -3.1320    0.7250 O   0  0  0  0  0  0  0  0  0  0  0  0
  1  2  2  0
  2  3  1  0
  3  4  1  0
  4  5  1  0
  4  6  1  0
  6  7  1  0
 21  6  1  6
  7  8  1  0
  8  9  2  0
  8 10  1  0
 10 11  1  0
 10 14  1  0
 11 12  1  0
 12 13  1  0
 14 15  2  0
 14 16  1  0
 16 17  1  0
 17 18  1  0
 18 19  2  0
 18 20  1  0
 21 22  1  0
 21 28  1  0
 22 23  1  0
 23 24  2  0
 23 27  1  0
 24 25  1  0
 25 26  1  0
 26 27  1  0
 27 28  1  0
 28 29  2  0
M  END
