
     RDKit          3D

 29 31  0  0  0  0  0  0  0  0999 V2000
    4.5560   -1.3080    0.6960 O   0  0  0  0  0  0  0  0  0  0  0  0
    4.4410   -0.2920   -0.0390 C   0  0  0  0  0  0  0  0  0  0  0  0
    5.6760    0.2390   -0.6720 C   0  0  0  0  0  0  0  0  0  0  0  0
    5.3360    1.3370   -1.4260 O   0  0  0  0  0  0  0  0  0  0  0  0
    6.3950    1.8250   -1.9920 O   0  0  0  0  0  0  0  0  0  0  0  0
    7.3380    0.9170   -1.9810 O   0  0  0  0  0  0  0  0  0  0  0  0
    3.1610    0.2980   -0.2350 N   0  0  0  0  0  0  0  0  0  0  0  0
    2.0220   -0.3100    0.4360 C   0  0  0  0  0  0  0  0  0  0  0  0
    0.7720    0.4360    0.1180 C   0  0  0  0  0  0  0  0  0  0  0  0
   -0.4500   -0.1190    0.7820 C   0  0  2  0  0  0  0  0  0  0  0  0
   -0.7830   -1.5020    0.4490 C   0  0  0  0  0  0  0  0  0  0  0  0
    0.0670   -2.3640    0.7810 O   0  0  0  0  0  0  0  0  0  0  0  0
   -1.9500   -1.9670   -0.2000 N   0  0  0  0  0  0  0  0  0  0  0  0
   -2.8210   -1.2280   -0.8800 C   0  0  0  0  0  0  0  0  0  0  0  0
   -3.8390   -1.9890   -1.3810 N   0  0  0  0  0  0  0  0  0  0  0  0
   -3.6130   -3.2370   -1.0130 C   0  0  0  0  0  0  0  0  0  0  0  0
   -4.0200   -4.5410   -1.0320 N   0  0  0  0  0  0  0  0  0  0  0  0
   -3.1770   -5.2660   -0.3720 O   0  0  0  0  0  0  0  0  0  0  0  0
   -2.2040   -4.5590    0.1100 C   0  0  0  0  0  0  0  0  0  0  0  0
   -1.2090   -4.9250    0.8000 O   0  0  0  0  0  0  0  0  0  0  0  0
   -2.4450   -3.2440   -0.2800 C   0  0  0  0  0  0  0  0  0  0  0  0
   -2.6490    0.1710   -1.0230 N   0  0  0  0  0  0  0  0  0  0  0  0
   -1.8450    1.0470    0.3520 P   0  0  0  0  0  0  0  0  0  0  0  0
   -3.2820    1.2310    1.9790 P   0  0  0  0  0  0  0  0  0  0  0  0
   -4.8830    0.9350    1.3960 O   0  0  0  0  0  0  0  0  0  0  0  0
   -3.1900    2.7500    2.7780 O   0  0  0  0  0  0  0  0  0  0  0  0
   -2.4880    3.9500    1.7320 P   0  0  0  0  0  0  0  0  0  0  0  0
   -3.6710    4.5960    0.6410 O   0  0  0  0  0  0  0  0  0  0  0  0
   -1.8090    5.2140    2.6870 O   0  0  0  0  0  0  0  0  0  0  0  0
  1  2  2  0
  2  3  1  0
  2  7  1  0
  3  4  1  0
  4  5  1  0
  5  6  1  0
  7  8  1  0
  8  9  1  0
 10  9  1  6
 10 11  1  0
 10 23  1  0
 11 12  2  0
 11 13  1  0
 13 14  1  0
 13 21  1  0
 14 15  2  0
 14 22  1  0
 15 16  1  0
 16 17  1  0
 16 21  2  0
 17 18  1  0
 18 19  1  0
 19 20  2  0
 19 21  1  0
 22 23  1  0
 23 24  1  0
 24 25  1  0
 24 26  1  0
 26 27  1  0
 27 28  1  0
 27 29  1  0
M  END
