
     RDKit          3D

 30 30  0  0  0  0  0  0  0  0999 V2000
    8.6160   -0.5670   -0.2300 C   0  0  0  0  0  0  0  0  0  0  0  0
    7.3450    0.0480    0.3190 C   0  0  2  0  0  0  0  0  0  0  0  0
    7.2440   -0.2200    1.6780 O   0  0  0  0  0  0  0  0  0  0  0  0
    6.1660   -0.4520   -0.4320 C   0  0  0  0  0  0  0  0  0  0  0  0
    5.0230    0.1290   -0.2910 N   0  0  0  0  0  0  0  0  0  0  0  0
    3.8790   -0.3240   -0.9930 C   0  0  0  0  0  0  0  0  0  0  0  0
    3.9890   -0.5180   -2.3520 C   0  0  0  0  0  0  0  0  0  0  0  0
    2.8950   -0.9640   -3.1000 C   0  0  0  0  0  0  0  0  0  0  0  0
    1.7010   -1.2010   -2.4220 C   0  0  0  0  0  0  0  0  0  0  0  0
    1.5650   -1.0150   -1.0630 C   0  0  0  0  0  0  0  0  0  0  0  0
    0.3470   -1.2700   -0.4520 O   0  0  0  0  0  0  0  0  0  0  0  0
   -0.6410   -0.3340   -0.2940 C   0  0  0  0  0  0  0  0  0  0  0  0
   -0.4640    0.8230   -0.7150 O   0  0  0  0  0  0  0  0  0  0  0  0
   -1.9580   -0.6540    0.3800 C   0  0  0  0  0  0  0  0  0  0  0  0
   -2.0790   -2.1730    0.8830 P   0  0  0  0  0  0  0  0  0  0  0  0
   -2.8640    0.4510    0.4690 C   0  0  0  0  0  0  0  0  0  0  0  0
   -4.0450    0.6060    0.9870 C   0  0  0  0  0  0  0  0  0  0  0  0
   -4.8530   -0.3830    1.6900 C   0  0  0  0  0  0  0  0  0  0  0  0
   -6.0840   -0.7000    1.1100 O   0  0  0  0  0  0  0  0  0  0  0  0
   -5.9800   -1.3630   -0.0800 C   0  0  1  0  0  0  0  0  0  0  0  0
   -6.2620   -2.7560    0.1970 O   0  0  0  0  0  0  0  0  0  0  0  0
   -6.8550   -1.0210   -1.2060 C   0  0  0  0  0  0  0  0  0  0  0  0
   -6.6630    0.7180   -1.7830 P   0  0  0  0  0  0  0  0  0  0  0  0
   -4.6790    1.9960    0.9790 C   0  0  2  0  0  0  0  0  0  0  0  0
   -4.0570    2.8790    0.0640 N   0  0  0  0  0  0  0  0  0  0  0  0
   -4.4350    2.5220    2.2830 O   0  0  0  0  0  0  0  0  0  0  0  0
    2.6780   -0.5720   -0.3680 C   0  0  0  0  0  0  0  0  0  0  0  0
    7.4630    1.5280    0.1200 C   0  0  0  0  0  0  0  0  0  0  0  0
    7.4660    2.3470    1.0490 O   0  0  0  0  0  0  0  0  0  0  0  0
    7.5730    1.9770   -1.1730 O   0  0  0  0  0  0  0  0  0  0  0  0
  2  1  1  6
  2  3  1  0
  2  4  1  0
  2 28  1  0
  4  5  2  3
  5  6  1  0
  6  7  2  0
  6 27  1  0
  7  8  1  0
  8  9  2  0
  9 10  1  0
 10 11  1  0
 10 27  2  0
 11 12  1  0
 12 13  2  0
 12 14  1  0
 14 15  2  0
 14 16  1  0
 16 17  2  3
 17 18  1  0
 17 24  1  0
 18 19  1  0
 19 20  1  0
 20 21  1  1
 20 22  1  0
 22 23  1  0
 24 25  1  6
 24 26  1  0
 28 29  2  0
 28 30  1  0
M  END
