
     RDKit          3D

 23 26  0  0  0  0  0  0  0  0999 V2000
   -4.7680    0.5430   -1.6050 C   0  0  0  0  0  0  0  0  0  0  0  0
   -5.4700    1.0660   -0.6200 C   0  0  0  0  0  0  0  0  0  0  0  0
   -5.3680    0.7290    0.7960 C   0  0  0  0  0  0  0  0  0  0  0  0
   -4.3750   -0.3010    1.1430 C   0  0  0  0  0  0  0  0  0  0  0  0
   -3.6240   -0.8490    0.0180 C   0  0  0  0  0  0  0  0  0  0  0  0
   -2.6130   -1.8810    0.2730 N   0  0  0  0  0  0  0  0  0  0  0  0
   -1.2660   -1.4450    0.2760 C   0  0  0  0  0  0  0  0  0  0  0  0
   -0.2210   -2.3280    0.5060 C   0  0  0  0  0  0  0  0  0  0  0  0
    1.1040   -1.9190    0.5120 C   0  0  0  0  0  0  0  0  0  0  0  0
    1.3770   -0.5920    0.2820 C   0  0  0  0  0  0  0  0  0  0  0  0
    0.3670    0.3320    0.0460 C   0  0  0  0  0  0  0  0  0  0  0  0
   -0.9170   -0.1360    0.0540 C   0  0  0  0  0  0  0  0  0  0  0  0
    0.4910    1.7220   -0.2050 N   0  0  0  0  0  0  0  0  0  0  0  0
    1.5650    2.4300   -0.3920 C   0  0  0  0  0  0  0  0  0  0  0  0
    2.9320    2.0160   -0.4000 N   0  0  0  0  0  0  0  0  0  0  0  0
    3.4670    0.8850   -0.1100 C   0  0  0  0  0  0  0  0  0  0  0  0
    4.8920    0.7730   -0.2150 N   0  0  0  0  0  0  0  0  0  0  0  0
    5.5510   -0.2000   -0.8700 C   0  0  0  0  0  0  0  0  0  0  0  0
    6.9130    0.0210   -0.7550 C   0  0  0  0  0  0  0  0  0  0  0  0
    7.0340    1.1690   -0.0010 C   0  0  0  0  0  0  0  0  0  0  0  0
    5.7800    1.5760    0.2940 N   0  0  0  0  0  0  0  0  0  0  0  0
    2.7840   -0.2860    0.3120 N   0  0  0  0  0  0  0  0  0  0  0  0
   -3.7980   -0.4710   -1.2200 C   0  0  0  0  0  0  0  0  0  0  0  0
  1  2  2  0
  1 23  1  0
  2  3  1  0
  3  4  1  0
  4  5  1  0
  5  6  1  0
  5 23  2  0
  6  7  1  0
  7  8  2  0
  7 12  1  0
  8  9  1  0
  9 10  2  0
 10 11  1  0
 10 22  1  0
 11 12  2  0
 11 13  1  0
 13 14  2  0
 14 15  1  0
 15 16  2  0
 16 17  1  0
 16 22  1  0
 17 18  1  0
 17 21  1  0
 18 19  2  0
 19 20  1  0
 20 21  2  0
M  END
