
     RDKit          3D

 23 26  0  0  0  0  0  0  0  0999 V2000
   -5.3960   -1.4560   -0.4780 C   0  0  0  0  0  0  0  0  0  0  0  0
   -4.6040   -1.4360    0.7980 C   0  0  0  0  0  0  0  0  0  0  0  0
   -3.3300   -0.6930    0.5890 C   0  0  0  0  0  0  0  0  0  0  0  0
   -2.0560   -1.1920    0.4340 C   0  0  0  0  0  0  0  0  0  0  0  0
   -1.1540   -0.2070    0.2650 N   0  0  0  0  0  0  0  0  0  0  0  0
    0.2570   -0.4230    0.0790 C   0  0  0  0  0  0  0  0  0  0  0  0
    1.1400    0.5830   -0.1000 C   0  0  0  0  0  0  0  0  0  0  0  0
    2.4890    0.2940   -0.2720 C   0  0  0  0  0  0  0  0  0  0  0  0
    3.0080   -0.9750   -0.2760 C   0  0  0  0  0  0  0  0  0  0  0  0
    4.3610   -1.3230   -0.4420 N   0  0  0  0  0  0  0  0  0  0  0  0
    5.4330   -0.4270   -0.6020 C   0  0  0  0  0  0  0  0  0  0  0  0
    5.4340    0.9170   -0.6350 N   0  0  0  0  0  0  0  0  0  0  0  0
    6.6620    1.4120   -0.8060 C   0  0  0  0  0  0  0  0  0  0  0  0
    7.4680    0.3480   -0.8840 N   0  0  0  0  0  0  0  0  0  0  0  0
    6.7390   -0.7450   -0.7630 N   0  0  0  0  0  0  0  0  0  0  0  0
    2.0780   -1.9960   -0.0900 C   0  0  0  0  0  0  0  0  0  0  0  0
    0.7400   -1.7200    0.0820 C   0  0  0  0  0  0  0  0  0  0  0  0
   -1.8350    0.9430    0.3100 C   0  0  0  0  0  0  0  0  0  0  0  0
   -1.4320    2.2000    0.1990 N   0  0  0  0  0  0  0  0  0  0  0  0
   -2.2660    3.2370    0.2700 C   0  0  0  0  0  0  0  0  0  0  0  0
   -3.6330    3.0370    0.4680 C   0  0  0  0  0  0  0  0  0  0  0  0
   -4.0550    1.7490    0.5830 C   0  0  0  0  0  0  0  0  0  0  0  0
   -3.1830    0.6770    0.5080 C   0  0  0  0  0  0  0  0  0  0  0  0
  1  2  1  0
  2  3  1  0
  3  4  2  0
  3 23  1  0
  4  5  1  0
  5  6  1  0
  5 18  1  0
  6  7  2  0
  6 17  1  0
  7  8  1  0
  8  9  2  0
  9 10  1  0
  9 16  1  0
 10 11  1  0
 11 12  1  0
 11 15  2  0
 12 13  2  0
 13 14  1  0
 14 15  1  0
 16 17  2  0
 18 19  2  0
 18 23  1  0
 19 20  1  0
 20 21  2  0
 21 22  1  0
 22 23  2  0
M  END
