
     RDKit          3D

 23 26  0  0  0  0  0  0  0  0999 V2000
   -6.2060   -1.1670   -0.5990 C   0  0  0  0  0  0  0  0  0  0  0  0
   -5.4970   -1.0370    0.5720 C   0  0  0  0  0  0  0  0  0  0  0  0
   -4.2190   -0.4850    0.5240 C   0  0  0  0  0  0  0  0  0  0  0  0
   -3.7210   -0.0920   -0.6940 C   0  0  0  0  0  0  0  0  0  0  0  0
   -2.4370    0.5050   -0.7950 N   0  0  0  0  0  0  0  0  0  0  0  0
   -1.5740    0.8840    0.2180 C   0  0  0  0  0  0  0  0  0  0  0  0
   -1.9680    1.4830    1.3790 C   0  0  0  0  0  0  0  0  0  0  0  0
   -1.0090    1.7910    2.3540 C   0  0  0  0  0  0  0  0  0  0  0  0
    0.3170    1.5000    2.1560 C   0  0  0  0  0  0  0  0  0  0  0  0
    0.7520    0.8840    0.9690 C   0  0  0  0  0  0  0  0  0  0  0  0
    2.1200    0.5840    0.7800 N   0  0  0  0  0  0  0  0  0  0  0  0
    2.7570    0.0610   -0.3420 C   0  0  0  0  0  0  0  0  0  0  0  0
    2.1680   -0.2610   -1.5010 N   0  0  0  0  0  0  0  0  0  0  0  0
    2.7970   -0.7590   -2.5710 C   0  0  0  0  0  0  0  0  0  0  0  0
    4.1570   -0.9570   -2.4740 C   0  0  0  0  0  0  0  0  0  0  0  0
    4.8220   -0.6510   -1.3230 N   0  0  0  0  0  0  0  0  0  0  0  0
    6.1240   -0.7700   -1.0370 C   0  0  0  0  0  0  0  0  0  0  0  0
    6.2620   -0.3200    0.2620 C   0  0  0  0  0  0  0  0  0  0  0  0
    5.0410    0.0420    0.6780 N   0  0  0  0  0  0  0  0  0  0  0  0
    4.1390   -0.1610   -0.3020 C   0  0  0  0  0  0  0  0  0  0  0  0
   -0.2000    0.5940    0.0380 C   0  0  0  0  0  0  0  0  0  0  0  0
   -4.4760   -0.2480   -1.8280 N   0  0  0  0  0  0  0  0  0  0  0  0
   -5.7000   -0.7720   -1.8200 C   0  0  0  0  0  0  0  0  0  0  0  0
  1  2  2  0
  1 23  1  0
  2  3  1  0
  3  4  2  0
  4  5  1  0
  4 22  1  0
  5  6  1  0
  6  7  2  0
  6 21  1  0
  7  8  1  0
  8  9  2  0
  9 10  1  0
 10 11  1  0
 10 21  2  0
 11 12  1  0
 12 13  2  0
 12 20  1  0
 13 14  1  0
 14 15  2  0
 15 16  1  0
 16 17  1  0
 16 20  1  0
 17 18  2  0
 18 19  1  0
 19 20  2  0
 22 23  2  0
M  END
