
     RDKit          3D

 16 16  0  0  0  0  0  0  0  0999 V2000
    3.3270   -0.3680    0.6740 N   0  0  0  0  0  0  0  0  0  0  0  0
    2.7190   -0.9480   -0.5360 C   0  0  0  0  0  0  0  0  0  0  0  0
    2.1130    0.1710   -1.3110 C   0  0  0  0  0  0  0  0  0  0  0  0
    1.0770    0.9030   -0.5980 N   0  0  0  0  0  0  0  0  0  0  0  0
   -0.1670    0.3320   -0.2890 C   0  0  0  0  0  0  0  0  0  0  0  0
   -0.4650   -0.8830   -0.9370 C   0  0  0  0  0  0  0  0  0  0  0  0
   -1.6950   -1.4460   -0.7030 C   0  0  0  0  0  0  0  0  0  0  0  0
   -2.6210   -0.8600    0.1320 C   0  0  0  0  0  0  0  0  0  0  0  0
   -3.8820   -1.4740    0.3470 N   0  0  0  0  0  0  0  0  0  0  0  0
   -4.1910   -2.5420   -0.2000 O   0  0  0  0  0  0  0  0  0  0  0  0
   -4.8090   -0.8930    1.1790 O   0  0  0  0  0  0  0  0  0  0  0  0
   -2.3240    0.3240    0.7610 C   0  0  0  0  0  0  0  0  0  0  0  0
   -1.0600    0.9320    0.5410 C   0  0  0  0  0  0  0  0  0  0  0  0
   -0.7910    2.1600    1.2560 C   0  0  0  0  0  0  0  0  0  0  0  0
   -1.6820    2.6780    2.0180 O   0  0  0  0  0  0  0  0  0  0  0  0
    0.3830    2.8510    1.1930 O   0  0  0  0  0  0  0  0  0  0  0  0
  1  2  1  0
  2  3  1  0
  3  4  1  0
  4  5  1  0
  5  6  2  0
  5 13  1  0
  6  7  1  0
  7  8  2  0
  8  9  1  0
  8 12  1  0
  9 10  2  0
  9 11  1  0
 12 13  2  0
 13 14  1  0
 14 15  2  0
 14 16  1  0
M  CHG  2   9   1  11  -1
M  END
