
     RDKit          3D

 33 35  0  0  0  0  0  0  0  0999 V2000
   -3.8970    0.2440   -5.3340 C   0  0  0  0  0  0  0  0  0  0  0  0
   -3.3850   -0.9400   -4.6910 N   0  0  0  0  0  0  0  0  0  0  0  0
   -2.7260   -0.9120   -3.4320 C   0  0  0  0  0  0  0  0  0  0  0  0
   -2.6030    0.2020   -2.8900 O   0  0  0  0  0  0  0  0  0  0  0  0
   -2.2410   -2.1580   -2.8580 C   0  0  0  0  0  0  0  0  0  0  0  0
   -1.6060   -1.9950   -1.5100 N   0  0  0  0  0  0  0  0  0  0  0  0
   -2.3460   -2.3650   -0.3890 C   0  0  0  0  0  0  0  0  0  0  0  0
   -3.2060   -1.4700    0.4040 C   0  0  2  0  0  0  0  0  0  0  0  0
   -4.3720   -0.8730   -0.3400 C   0  0  0  0  0  0  0  0  0  0  0  0
   -4.3090    0.6330   -0.2310 C   0  0  1  0  0  0  0  0  0  0  0  0
   -5.3130    1.2600   -1.1770 C   0  0  0  0  0  0  0  0  0  0  0  0
   -4.6400    0.9650    1.2120 C   0  0  0  0  0  0  0  0  0  0  0  0
   -3.5190    0.4180    2.0420 C   0  0  2  0  0  0  0  0  0  0  0  0
   -4.0010   -0.3490    3.2570 C   0  0  0  0  0  0  0  0  0  0  0  0
   -2.7190    1.6110    2.5750 C   0  0  0  0  0  0  0  0  0  0  0  0
   -2.5230   -0.4200    1.2330 C   0  0  0  0  0  0  0  0  0  0  0  0
   -0.2980   -1.5460   -1.5950 C   0  0  0  0  0  0  0  0  0  0  0  0
    0.1820   -1.2690   -2.8000 O   0  0  0  0  0  0  0  0  0  0  0  0
    0.6340   -1.3390   -0.5080 C   0  0  0  0  0  0  0  0  0  0  0  0
    0.6930   -1.5290    0.8040 C   0  0  0  0  0  0  0  0  0  0  0  0
    1.7780   -1.1450    1.5120 C   0  0  0  0  0  0  0  0  0  0  0  0
    2.8100   -0.5630    0.8610 C   0  0  0  0  0  0  0  0  0  0  0  0
    4.0840   -0.0590    1.3530 C   0  0  0  0  0  0  0  0  0  0  0  0
    4.3060   -0.1610    2.5820 O   0  0  0  0  0  0  0  0  0  0  0  0
    5.0370    0.5110    0.5560 O   0  0  0  0  0  0  0  0  0  0  0  0
    6.2680    1.0050    0.9890 C   0  0  1  0  0  0  0  0  0  0  0  0
    7.4470    0.3250    0.3310 C   0  0  0  0  0  0  0  0  0  0  0  0
    8.7140    1.0790    0.5730 C   0  0  0  0  0  0  0  0  0  0  0  0
    8.5800    2.1850    1.5870 C   0  0  0  0  0  0  0  0  0  0  0  0
    7.5310    3.2000    1.1800 C   0  0  0  0  0  0  0  0  0  0  0  0
    6.3670    2.4430    0.6870 C   0  0  0  0  0  0  0  0  0  0  0  0
    5.5100    2.9920    0.0490 O   0  0  0  0  0  0  0  0  0  0  0  0
    2.2510   -0.5440   -0.8210 S   0  0  0  0  0  0  0  0  0  0  0  0
  1  2  1  0
  2  3  1  0
  3  4  2  0
  3  5  1  0
  5  6  1  0
  6  7  1  0
  6 17  1  0
  8  7  1  6
  8  9  1  0
  8 16  1  0
  9 10  1  0
 10 11  1  6
 10 12  1  0
 12 13  1  0
 13 14  1  1
 13 15  1  0
 13 16  1  0
 17 18  2  0
 17 19  1  0
 19 20  2  0
 19 33  1  0
 20 21  1  0
 21 22  2  0
 22 23  1  0
 22 33  1  0
 23 24  2  0
 23 25  1  0
 26 25  1  6
 26 27  1  0
 26 31  1  0
 27 28  1  0
 28 29  1  0
 29 30  1  0
 30 31  1  0
 31 32  2  0
M  END
