
     RDKit          3D

 34 36  0  0  0  0  0  0  0  0999 V2000
   -5.3640    0.6090   -1.0890 C   0  0  0  0  0  0  0  0  0  0  0  0
   -4.0470    0.8480   -1.2260 C   0  0  0  0  0  0  0  0  0  0  0  0
   -3.4450    0.4340   -2.5130 C   0  0  0  0  0  0  0  0  0  0  0  0
   -2.4170    1.3980   -2.9750 C   0  0  0  0  0  0  0  0  0  0  0  0
   -1.3260    1.6230   -2.0330 C   0  0  0  0  0  0  0  0  0  0  0  0
   -0.4580    2.5070   -2.4760 O   0  0  0  0  0  0  0  0  0  0  0  0
   -1.0180    1.0950   -0.7480 C   0  0  0  0  0  0  0  0  0  0  0  0
    0.0400    0.4420   -0.4730 C   0  0  0  0  0  0  0  0  0  0  0  0
    1.2370   -0.0640   -1.0830 C   0  0  0  0  0  0  0  0  0  0  0  0
    2.1760   -0.6300   -0.2950 C   0  0  0  0  0  0  0  0  0  0  0  0
    2.0790   -0.7850    1.1480 C   0  0  0  0  0  0  0  0  0  0  0  0
    1.2420   -0.4810    1.9750 O   0  0  0  0  0  0  0  0  0  0  0  0
    3.2000   -1.4350    1.7490 O   0  0  0  0  0  0  0  0  0  0  0  0
    3.2260   -1.6510    3.1710 C   0  0  0  0  0  0  0  0  0  0  0  0
    2.0750   -2.4970    3.6180 C   0  0  0  0  0  0  0  0  0  0  0  0
    3.4920   -1.0200   -0.9300 C   0  0  2  0  0  0  0  0  0  0  0  0
    4.6130    0.4290   -0.9150 S   0  0  0  0  0  0  0  0  0  0  0  0
    6.1930   -0.0360   -1.6740 C   0  0  0  0  0  0  0  0  0  0  0  0
    7.0780    1.1170   -1.6600 N   0  0  0  0  0  0  0  0  0  0  0  0
    3.4030   -1.4820   -2.2910 C   0  0  0  0  0  0  0  0  0  0  0  0
    4.1980   -2.4030   -2.6750 O   0  0  0  0  0  0  0  0  0  0  0  0
    2.4520   -0.9000   -3.1230 N   0  0  0  0  0  0  0  0  0  0  0  0
    1.3620   -0.1900   -2.5280 C   0  0  0  0  0  0  0  0  0  0  0  0
    0.5330    0.2990   -3.3670 O   0  0  0  0  0  0  0  0  0  0  0  0
   -2.0280    1.2300    0.4190 C   0  0  2  0  0  0  0  0  0  0  0  0
   -2.0780   -0.0470    1.1880 C   0  0  0  0  0  0  0  0  0  0  0  0
   -1.8110   -0.1600    2.4640 C   0  0  0  0  0  0  0  0  0  0  0  0
   -1.9480   -1.5610    2.9420 C   0  0  0  0  0  0  0  0  0  0  0  0
   -2.3500   -2.2560    1.6960 C   0  0  0  0  0  0  0  0  0  0  0  0
   -2.4180   -1.3710    0.7050 C   0  0  0  0  0  0  0  0  0  0  0  0
   -3.3880    1.4870   -0.0710 C   0  0  0  0  0  0  0  0  0  0  0  0
   -4.1430    2.3910    0.5630 C   0  0  0  0  0  0  0  0  0  0  0  0
   -3.7980    3.1910    1.7330 C   0  0  0  0  0  0  0  0  0  0  0  0
   -3.8610    4.5430    1.3880 F   0  0  0  0  0  0  0  0  0  0  0  0
  1  2  2  0
  2  3  1  0
  2 31  1  0
  3  4  1  0
  4  5  1  0
  5  6  2  0
  5  7  1  0
  7  8  2  3
  7 25  1  0
  8  9  1  0
  9 10  2  0
  9 23  1  0
 10 11  1  0
 10 16  1  0
 11 12  2  0
 11 13  1  0
 13 14  1  0
 14 15  1  0
 16 17  1  6
 16 20  1  0
 17 18  1  0
 18 19  1  0
 20 21  2  0
 20 22  1  0
 22 23  1  0
 23 24  2  0
 25 26  1  6
 25 31  1  0
 26 27  2  0
 26 30  1  0
 27 28  1  0
 28 29  1  0
 29 30  2  0
 31 32  2  3
 32 33  1  0
 33 34  1  0
M  END
