
     RDKit          3D

 34 36  0  0  0  0  0  0  0  0999 V2000
   -1.1900   -3.8950    0.2580 C   0  0  0  0  0  0  0  0  0  0  0  0
   -1.5580   -3.0860   -0.7290 C   0  0  0  0  0  0  0  0  0  0  0  0
   -1.8500   -3.5890   -1.9770 O   0  0  0  0  0  0  0  0  0  0  0  0
   -1.6690   -1.6090   -0.5170 C   0  0  0  0  0  0  0  0  0  0  0  0
   -2.0300   -0.8920   -1.5500 C   0  0  0  0  0  0  0  0  0  0  0  0
   -2.2370    0.5170   -1.7160 C   0  0  0  0  0  0  0  0  0  0  0  0
   -3.2520    1.3050   -1.4530 C   0  0  0  0  0  0  0  0  0  0  0  0
   -4.5600    0.9440   -0.8710 C   0  0  0  0  0  0  0  0  0  0  0  0
   -5.0140    2.1180    0.0180 C   0  0  1  0  0  0  0  0  0  0  0  0
   -6.5150    2.1750   -0.1120 C   0  0  0  0  0  0  0  0  0  0  0  0
   -7.3250    1.0700    0.2670 N   0  0  0  0  0  0  0  0  0  0  0  0
   -7.1040    3.1960   -0.5580 O   0  0  0  0  0  0  0  0  0  0  0  0
   -4.5540    1.8150    1.7030 S   0  0  0  0  0  0  0  0  0  0  0  0
   -2.9740    2.3810    2.2480 C   0  0  0  0  0  0  0  0  0  0  0  0
   -1.8830    2.5430    1.2830 C   0  0  0  0  0  0  0  0  0  0  0  0
   -1.0820    1.3130    1.0190 N   0  0  0  0  0  0  0  0  0  0  0  0
    0.1780    1.5070    0.4440 C   0  0  0  0  0  0  0  0  0  0  0  0
    0.4610    2.7420    0.1550 O   0  0  0  0  0  0  0  0  0  0  0  0
    1.2300    0.5610    0.1190 C   0  0  2  0  0  0  0  0  0  0  0  0
    1.9900    0.0650    1.3340 C   0  0  0  0  0  0  0  0  0  0  0  0
    2.7900   -1.1330    0.8740 C   0  0  0  0  0  0  0  0  0  0  0  0
    3.8150   -0.6340   -0.0790 C   0  0  0  0  0  0  0  0  0  0  0  0
    5.0540   -1.2510   -0.2130 C   0  0  0  0  0  0  0  0  0  0  0  0
    6.0010   -0.7820   -1.0940 C   0  0  0  0  0  0  0  0  0  0  0  0
    7.2330   -1.3990   -1.2250 O   0  0  0  0  0  0  0  0  0  0  0  0
    7.5120   -2.5310   -0.4360 C   0  0  0  0  0  0  0  0  0  0  0  0
    5.7160    0.3230   -1.8580 C   0  0  0  0  0  0  0  0  0  0  0  0
    6.6550    0.8190   -2.7570 O   0  0  0  0  0  0  0  0  0  0  0  0
    7.8470    0.2100   -2.8740 F   0  0  0  0  0  0  0  0  0  0  0  0
    4.4870    0.9520   -1.7390 C   0  0  0  0  0  0  0  0  0  0  0  0
    3.5310    0.4660   -0.8400 C   0  0  0  0  0  0  0  0  0  0  0  0
    2.2530    1.2190   -0.8010 C   0  0  0  0  0  0  0  0  0  0  0  0
   -1.6880    0.1080    1.3780 C   0  0  0  0  0  0  0  0  0  0  0  0
   -1.3250   -1.2010    0.8470 C   0  0  0  0  0  0  0  0  0  0  0  0
  1  2  2  0
  2  3  1  0
  2  4  1  0
  4  5  2  0
  4 34  1  0
  5  6  1  0
  6  7  2  0
  7  8  1  0
  8  9  1  0
  9 10  1  1
  9 13  1  0
 10 11  1  0
 10 12  2  0
 13 14  1  0
 14 15  1  0
 15 16  1  0
 16 17  1  0
 16 33  1  0
 17 18  2  0
 19 17  1  1
 19 20  1  0
 19 32  1  0
 20 21  1  0
 21 22  1  0
 22 23  2  0
 22 31  1  0
 23 24  1  0
 24 25  1  0
 24 27  2  0
 25 26  1  0
 27 28  1  0
 27 30  1  0
 28 29  1  0
 30 31  2  0
 31 32  1  0
 33 34  1  0
M  END
