
     RDKit          3D

 34 37  0  0  0  0  0  0  0  0999 V2000
   -3.0950    5.5820   -3.2150 C   0  0  0  0  0  0  0  0  0  0  0  0
   -2.3470    5.6510   -2.1410 C   0  0  0  0  0  0  0  0  0  0  0  0
   -1.7280    4.4950   -1.6240 N   0  0  0  0  0  0  0  0  0  0  0  0
   -0.3650    4.2230   -1.7280 N   0  0  0  0  0  0  0  0  0  0  0  0
   -0.0770    3.0780   -1.1900 C   0  0  0  0  0  0  0  0  0  0  0  0
   -1.2600    2.4750   -0.6650 C   0  0  0  0  0  0  0  0  0  0  0  0
   -1.5640    1.3380   -0.0290 C   0  0  0  0  0  0  0  0  0  0  0  0
   -0.6010    0.3530    0.3060 C   0  0  0  0  0  0  0  0  0  0  0  0
   -0.8850   -0.7500    0.8500 N   0  0  0  0  0  0  0  0  0  0  0  0
   -1.9410   -1.4640    1.3060 C   0  0  0  0  0  0  0  0  0  0  0  0
   -2.7100   -2.2560    0.3380 N   0  0  0  0  0  0  0  0  0  0  0  0
   -2.0940   -2.6350   -0.9030 C   0  0  0  0  0  0  0  0  0  0  0  0
   -2.3880   -1.5900    2.5690 C   0  0  0  0  0  0  0  0  0  0  0  0
   -3.8200   -2.6170    2.8020 Cl  0  0  0  0  0  0  0  0  0  0  0  0
   -1.7770   -0.9880    3.7230 C   0  0  0  0  0  0  0  0  0  0  0  0
   -0.5280   -0.1680    3.5410 C   0  0  0  0  0  0  0  0  0  0  0  0
   -2.2110   -1.0970    4.9500 C   0  0  0  0  0  0  0  0  0  0  0  0
   -3.4100   -1.8600    5.3480 C   0  0  0  0  0  0  0  0  0  0  0  0
   -1.5000   -0.4570    5.9670 F   0  0  0  0  0  0  0  0  0  0  0  0
    0.8280    0.4890    0.0650 N   0  0  0  0  0  0  0  0  0  0  0  0
    1.7310    1.1300    0.9720 C   0  0  0  0  0  0  0  0  0  0  0  0
    2.9480    0.1720    0.8630 C   0  0  0  0  0  0  0  0  0  0  0  0
    2.9760   -0.0980   -0.5980 C   0  0  1  0  0  0  0  0  0  0  0  0
    3.7560   -1.2330   -0.9550 N   0  0  2  0  0  0  0  0  0  0  0  0
    3.7650   -1.4540   -2.4030 C   0  0  0  0  0  0  0  0  0  0  0  0
    4.9900   -2.2360   -2.7400 C   0  0  0  0  0  0  0  0  0  0  0  0
    5.1600   -3.4510   -1.8950 C   0  0  0  0  0  0  0  0  0  0  0  0
    4.7030   -3.3430   -0.4850 C   0  0  0  0  0  0  0  0  0  0  0  0
    3.4290   -2.4820   -0.3630 C   0  0  0  0  0  0  0  0  0  0  0  0
    1.5830   -0.0680   -1.0670 C   0  0  0  0  0  0  0  0  0  0  0  0
   -3.0460    1.2700    0.2720 C   0  0  0  0  0  0  0  0  0  0  0  0
   -3.7060    1.3330   -1.1000 C   0  0  0  0  0  0  0  0  0  0  0  0
   -3.3860    2.6610   -1.7660 C   0  0  0  0  0  0  0  0  0  0  0  0
   -2.3990    3.4420   -0.9250 C   0  0  2  0  0  0  0  0  0  0  0  0
  1  2  2  0
  2  3  1  0
  3  4  1  0
  3 34  1  0
  4  5  2  0
  5  6  1  0
  6  7  2  0
  6 34  1  0
  7  8  1  0
  7 31  1  0
  8  9  2  3
  8 20  1  0
  9 10  1  0
 10 11  1  0
 10 13  2  3
 11 12  1  0
 13 14  1  0
 13 15  1  0
 15 16  1  0
 15 17  2  3
 17 18  1  0
 17 19  1  0
 20 21  1  0
 20 30  1  0
 21 22  1  0
 23 22  1  1
 23 24  1  0
 23 30  1  0
 24 25  1  6
 24 29  1  0
 25 26  1  0
 26 27  1  0
 27 28  1  0
 28 29  1  0
 31 32  1  0
 32 33  1  0
 34 33  1  6
M  CHG  1  24   1
M  END
