
     RDKit          3D

 34 38  0  0  0  0  0  0  0  0999 V2000
    8.8940   -0.9500    0.3600 C   0  0  0  0  0  0  0  0  0  0  0  0
    8.3910    0.3250    0.9410 C   0  0  0  0  0  0  0  0  0  0  0  0
    7.2600    0.9600    0.1590 C   0  0  1  0  0  0  0  0  0  0  0  0
    7.6920    1.2760   -1.2360 C   0  0  0  0  0  0  0  0  0  0  0  0
    8.0970    0.2280   -1.9830 F   0  0  0  0  0  0  0  0  0  0  0  0
    6.0470    0.2600    0.3200 N   0  0  1  0  0  0  0  0  0  0  0  0
    4.9460    1.1300    0.7800 C   0  0  0  0  0  0  0  0  0  0  0  0
    3.9180    0.2110    1.3680 C   0  0  0  0  0  0  0  0  0  0  0  0
    3.5900   -0.9400    0.5500 N   0  0  0  0  0  0  0  0  0  0  0  0
    2.2140   -1.3630    0.5330 C   0  0  0  0  0  0  0  0  0  0  0  0
    1.1870   -0.6850    1.0780 N   0  0  0  0  0  0  0  0  0  0  0  0
    0.0440   -1.3000    0.9030 N   0  0  0  0  0  0  0  0  0  0  0  0
   -1.2140   -0.8320    1.3640 N   0  0  0  0  0  0  0  0  0  0  0  0
   -2.1470   -0.5220    0.5050 C   0  0  0  0  0  0  0  0  0  0  0  0
   -1.9370   -0.6440   -0.9510 C   0  0  0  0  0  0  0  0  0  0  0  0
   -2.9470    0.1540   -1.7050 C   0  0  0  0  0  0  0  0  0  0  0  0
   -3.4030    1.3820   -0.9550 C   0  0  0  0  0  0  0  0  0  0  0  0
   -4.0950    1.0950    0.2920 C   0  0  2  0  0  0  0  0  0  0  0  0
   -3.4140   -0.0610    1.0130 C   0  0  0  0  0  0  0  0  0  0  0  0
   -3.9190   -0.3940    2.1700 C   0  0  0  0  0  0  0  0  0  0  0  0
   -5.2090    0.0420    2.6760 C   0  0  0  0  0  0  0  0  0  0  0  0
   -5.9660    0.8200    1.8780 C   0  0  0  0  0  0  0  0  0  0  0  0
   -7.2630    1.3330    2.3110 C   0  0  0  0  0  0  0  0  0  0  0  0
   -5.5180    0.9320    0.4460 C   0  0  0  0  0  0  0  0  0  0  0  0
   -6.4490    0.8050   -0.4910 C   0  0  0  0  0  0  0  0  0  0  0  0
   -7.9290    0.6320   -0.3800 C   0  0  0  0  0  0  0  0  0  0  0  0
   -8.3030   -0.1680   -1.6450 C   0  0  0  0  0  0  0  0  0  0  0  0
   -7.0710   -0.2540   -2.4750 C   0  0  0  0  0  0  0  0  0  0  0  0
   -6.2040    0.7810   -1.8930 N   0  0  0  0  0  0  0  0  0  0  0  0
    0.2900   -2.4230    0.2240 C   0  0  0  0  0  0  0  0  0  0  0  0
    1.6470   -2.4820   -0.0170 C   0  0  0  0  0  0  0  0  0  0  0  0
    2.4620   -3.7950   -0.8740 Cl  0  0  0  0  0  0  0  0  0  0  0  0
    4.6350   -1.5860   -0.1900 C   0  0  0  0  0  0  0  0  0  0  0  0
    5.5240   -0.4700   -0.7730 C   0  0  0  0  0  0  0  0  0  0  0  0
  1  2  1  0
  3  2  1  6
  3  4  1  0
  3  6  1  0
  4  5  1  0
  6  7  1  6
  6 34  1  0
  7  8  1  0
  8  9  1  0
  9 10  1  0
  9 33  1  0
 10 11  2  0
 10 31  1  0
 11 12  1  0
 12 13  1  0
 12 30  1  0
 13 14  2  3
 14 15  1  0
 14 19  1  0
 15 16  1  0
 16 17  1  0
 18 17  1  6
 18 19  1  0
 18 24  1  0
 19 20  2  0
 20 21  1  0
 21 22  2  0
 22 23  1  0
 22 24  1  0
 24 25  2  3
 25 26  1  0
 25 29  1  0
 26 27  1  0
 27 28  1  0
 28 29  1  0
 30 31  2  0
 31 32  1  0
 33 34  1  0
M  CHG  1   6   1
M  END
