
     RDKit          3D

 34 36  0  0  0  0  0  0  0  0999 V2000
    3.7390   -1.2050    0.5000 C   0  0  0  0  0  0  0  0  0  0  0  0
    4.4690   -0.1410    0.8370 C   0  0  0  0  0  0  0  0  0  0  0  0
    4.2400    1.1030    0.1260 C   0  0  0  0  0  0  0  0  0  0  0  0
    3.2710    1.2050   -0.8840 O   0  0  0  0  0  0  0  0  0  0  0  0
    1.9720    1.5910   -0.5750 C   0  0  0  0  0  0  0  0  0  0  0  0
    1.6960    1.8420    0.6130 O   0  0  0  0  0  0  0  0  0  0  0  0
    0.9350    1.6970   -1.6760 C   0  0  0  0  0  0  0  0  0  0  0  0
    0.2820    0.4030   -1.9330 C   0  0  0  0  0  0  0  0  0  0  0  0
   -0.4900   -0.2840   -0.8610 C   0  0  1  0  0  0  0  0  0  0  0  0
    0.4390   -0.3440    0.2250 O   0  0  0  0  0  0  0  0  0  0  0  0
   -1.7820    0.1820   -0.4860 C   0  0  0  0  0  0  0  0  0  0  0  0
   -2.0910    1.4930   -0.1130 N   0  0  0  0  0  0  0  0  0  0  0  0
   -2.2190    2.5990   -0.9680 C   0  0  0  0  0  0  0  0  0  0  0  0
   -2.0770    2.4370   -2.2100 O   0  0  0  0  0  0  0  0  0  0  0  0
   -2.5140    3.9460   -0.4630 C   0  0  0  0  0  0  0  0  0  0  0  0
   -2.7090    4.4140    0.7680 C   0  0  0  0  0  0  0  0  0  0  0  0
   -2.9650    5.7160    0.9430 C   0  0  0  0  0  0  0  0  0  0  0  0
   -3.0220    6.5380   -0.1500 C   0  0  0  0  0  0  0  0  0  0  0  0
   -3.2740    7.9760   -0.3060 C   0  0  0  0  0  0  0  0  0  0  0  0
   -2.6860    5.3860   -1.5510 S   0  0  0  0  0  0  0  0  0  0  0  0
   -0.5670   -1.7550   -1.3890 C   0  0  0  0  0  0  0  0  0  0  0  0
   -0.9840   -2.7260   -0.5110 N   0  0  0  0  0  0  0  0  0  0  0  0
   -2.2910   -2.8720   -0.0520 C   0  0  0  0  0  0  0  0  0  0  0  0
   -2.7920   -4.3260   -0.1360 C   0  0  2  0  0  0  0  0  0  0  0  0
   -4.2160   -4.3480    0.3110 C   0  0  0  0  0  0  0  0  0  0  0  0
   -1.9330   -5.0280    0.7180 O   0  0  0  0  0  0  0  0  0  0  0  0
   -0.7190   -5.1120    0.0620 C   0  0  2  0  0  0  0  0  0  0  0  0
    0.2000   -5.9840    0.9000 C   0  0  0  0  0  0  0  0  0  0  0  0
   -0.0940   -3.8290   -0.3240 C   0  0  0  0  0  0  0  0  0  0  0  0
    4.9370    2.1890    0.4040 C   0  0  0  0  0  0  0  0  0  0  0  0
    5.9480    2.1320    1.4420 C   0  0  0  0  0  0  0  0  0  0  0  0
    6.2020    1.0490    2.1190 C   0  0  0  0  0  0  0  0  0  0  0  0
    5.4850   -0.2110    1.8910 C   0  0  2  0  0  0  0  0  0  0  0  0
    6.3730   -1.2500    1.6630 F   0  0  0  0  0  0  0  0  0  0  0  0
  1  2  2  0
  2  3  1  0
  2 33  1  0
  3  4  1  0
  3 30  2  0
  4  5  1  0
  5  6  2  0
  5  7  1  0
  7  8  1  0
  8  9  1  0
  9 10  1  1
  9 11  1  0
  9 21  1  0
 11 12  1  0
 12 13  1  0
 13 14  2  0
 13 15  1  0
 15 16  2  0
 15 20  1  0
 16 17  1  0
 17 18  2  0
 18 19  1  0
 18 20  1  0
 21 22  1  0
 22 23  1  0
 22 29  1  0
 23 24  1  0
 24 25  1  1
 24 26  1  0
 26 27  1  0
 27 28  1  1
 27 29  1  0
 30 31  1  0
 31 32  2  0
 32 33  1  0
 33 34  1  6
M  END
