
     RDKit          3D

 29 33  0  0  0  0  0  0  0  0999 V2000
   -1.7620    4.2950    0.6550 C   0  0  0  0  0  0  0  0  0  0  0  0
   -0.6600    4.1160   -0.2960 C   0  0  0  0  0  0  0  0  0  0  0  0
    0.1850    5.0890   -0.7720 N   0  0  0  0  0  0  0  0  0  0  0  0
    1.1160    4.5450   -1.5580 N   0  0  0  0  0  0  0  0  0  0  0  0
    0.9020    3.2600   -1.6050 C   0  0  0  0  0  0  0  0  0  0  0  0
   -0.1990    2.9970   -0.8280 N   0  0  0  0  0  0  0  0  0  0  0  0
   -0.8140    1.7200   -0.6110 C   0  0  0  0  0  0  0  0  0  0  0  0
   -2.1730    1.8280   -0.4830 C   0  0  0  0  0  0  0  0  0  0  0  0
   -2.8690    0.6580   -0.2350 C   0  0  0  0  0  0  0  0  0  0  0  0
   -2.2180   -0.5690   -0.1250 C   0  0  0  0  0  0  0  0  0  0  0  0
   -2.9550   -1.8000    0.1370 C   0  0  0  0  0  0  0  0  0  0  0  0
   -2.6520   -3.0810   -0.2750 C   0  0  0  0  0  0  0  0  0  0  0  0
   -3.6190   -3.9160    0.2030 N   0  0  0  0  0  0  0  0  0  0  0  0
   -4.5040   -3.2220    0.8890 N   0  0  0  0  0  0  0  0  0  0  0  0
   -5.6790   -3.7480    1.5520 C   0  0  0  0  0  0  0  0  0  0  0  0
   -4.1290   -1.9390    0.8670 C   0  0  0  0  0  0  0  0  0  0  0  0
   -0.8430   -0.6150   -0.2690 C   0  0  0  0  0  0  0  0  0  0  0  0
   -0.1080    0.5210   -0.5150 C   0  0  0  0  0  0  0  0  0  0  0  0
    1.3370    0.1870   -0.6800 C   0  0  2  0  0  0  0  0  0  0  0  0
    1.8780   -0.3550    0.5520 N   0  0  0  0  0  0  0  0  0  0  0  0
    3.1630   -0.9530    0.5390 C   0  0  0  0  0  0  0  0  0  0  0  0
    3.8640   -1.1400    1.7440 C   0  0  0  0  0  0  0  0  0  0  0  0
    5.1000   -1.7390    1.7500 C   0  0  0  0  0  0  0  0  0  0  0  0
    5.6820   -2.1730    0.5680 C   0  0  0  0  0  0  0  0  0  0  0  0
    7.2600   -2.9420    0.5460 Cl  0  0  0  0  0  0  0  0  0  0  0  0
    5.0310   -2.0090   -0.6270 C   0  0  0  0  0  0  0  0  0  0  0  0
    3.7730   -1.3970   -0.6100 C   0  0  0  0  0  0  0  0  0  0  0  0
    2.1940    1.3360   -1.0780 C   0  0  0  0  0  0  0  0  0  0  0  0
    1.6730    2.1480   -2.2710 C   0  0  0  0  0  0  0  0  0  0  0  0
  1  2  1  0
  2  3  2  0
  2  6  1  0
  3  4  1  0
  4  5  2  0
  5  6  1  0
  5 29  1  0
  6  7  1  0
  7  8  2  0
  7 18  1  0
  8  9  1  0
  9 10  2  0
 10 11  1  0
 10 17  1  0
 11 12  1  0
 11 16  2  0
 12 13  2  0
 13 14  1  0
 14 15  1  0
 14 16  1  0
 17 18  2  0
 18 19  1  0
 19 20  1  1
 19 28  1  0
 20 21  1  0
 21 22  2  0
 21 27  1  0
 22 23  1  0
 23 24  2  0
 24 25  1  0
 24 26  1  0
 26 27  2  0
 28 29  1  0
M  END
