
     RDKit          3D

 30 29  0  0  0  0  0  0  0  0999 V2000
   -2.6140   -2.2280    1.2020 C   0  0  0  0  0  0  0  0  0  0  0  0
   -1.6310   -1.2960    1.8340 C   0  0  0  0  0  0  0  0  0  0  0  0
   -0.3380   -1.1120    1.1160 C   0  0  0  0  0  0  0  0  0  0  0  0
   -0.3270   -0.5620   -0.2540 C   0  0  1  0  0  0  0  0  0  0  0  0
    1.1270   -0.3930   -0.6990 C   0  0  0  0  0  0  0  0  0  0  0  0
    1.9450    0.4260    0.0450 N   0  0  0  0  0  0  0  0  0  0  0  0
    2.7280    1.2540    0.7620 C   0  0  0  0  0  0  0  0  0  0  0  0
    3.9990    1.4520    0.2830 C   0  0  0  0  0  0  0  0  0  0  0  0
    4.7900    2.2650    0.9850 F   0  0  0  0  0  0  0  0  0  0  0  0
    4.5240    0.8680   -0.9490 C   0  0  1  0  0  0  0  0  0  0  0  0
    5.7050    0.2240   -0.6280 F   0  0  0  0  0  0  0  0  0  0  0  0
    3.7460   -0.0210   -1.6070 F   0  0  0  0  0  0  0  0  0  0  0  0
    4.7690    1.9440   -1.8420 F   0  0  0  0  0  0  0  0  0  0  0  0
    2.4100    2.0320    1.9770 C   0  0  1  0  0  0  0  0  0  0  0  0
    1.5650    1.4030    2.8460 F   0  0  0  0  0  0  0  0  0  0  0  0
    3.6520    2.1130    2.7360 F   0  0  0  0  0  0  0  0  0  0  0  0
    1.9580    3.2840    1.7450 F   0  0  0  0  0  0  0  0  0  0  0  0
   -0.8980   -1.5500   -1.1940 N   0  0  0  0  0  0  0  0  0  0  0  0
   -0.3810   -2.8520   -1.4040 C   0  0  0  0  0  0  0  0  0  0  0  0
    0.6080   -3.2740   -0.8160 O   0  0  0  0  0  0  0  0  0  0  0  0
   -1.0570   -3.7640   -2.3910 C   0  0  0  0  0  0  0  0  0  0  0  0
   -0.3760   -4.9450   -2.5210 F   0  0  0  0  0  0  0  0  0  0  0  0
   -1.0890    0.6690   -0.4880 C   0  0  0  0  0  0  0  0  0  0  0  0
   -2.1200    0.5130   -1.2900 O   0  0  0  0  0  0  0  0  0  0  0  0
   -0.9580    1.9190   -0.0700 O   0  0  0  0  0  0  0  0  0  0  0  0
   -1.7770    3.0260   -0.3770 C   0  0  0  0  0  0  0  0  0  0  0  0
   -3.1610    2.9950    0.1320 C   0  0  2  0  0  0  0  0  0  0  0  0
   -3.7850    4.1850   -0.3150 F   0  0  0  0  0  0  0  0  0  0  0  0
   -3.1020    3.1760    1.5370 F   0  0  0  0  0  0  0  0  0  0  0  0
   -3.9120    1.9160   -0.1940 F   0  0  0  0  0  0  0  0  0  0  0  0
  1  2  1  0
  2  3  1  0
  4  3  1  1
  4  5  1  0
  4 18  1  0
  4 23  1  0
  5  6  1  0
  6  7  1  0
  7  8  2  3
  7 14  1  0
  8  9  1  0
  8 10  1  0
 10 11  1  1
 10 12  1  0
 10 13  1  0
 14 15  1  1
 14 16  1  0
 14 17  1  0
 18 19  1  0
 19 20  2  0
 19 21  1  0
 21 22  1  0
 23 24  2  0
 23 25  1  0
 25 26  1  0
 26 27  1  0
 27 28  1  6
 27 29  1  0
 27 30  1  0
M  END
