
     RDKit          3D

 31 30  0  0  0  0  0  0  0  0999 V2000
   -3.9030   -1.8980    2.5840 C   0  0  0  0  0  0  0  0  0  0  0  0
   -3.3390   -0.7680    1.9500 O   0  0  0  0  0  0  0  0  0  0  0  0
   -3.6630   -0.4370    0.6430 C   0  0  0  0  0  0  0  0  0  0  0  0
   -4.4840   -1.2190    0.0930 O   0  0  0  0  0  0  0  0  0  0  0  0
   -3.1640    0.6790   -0.1180 C   0  0  2  0  0  0  0  0  0  0  0  0
   -3.7930    0.6470   -1.5050 C   0  0  0  0  0  0  0  0  0  0  0  0
   -1.6980    0.7690   -0.3400 C   0  0  0  0  0  0  0  0  0  0  0  0
   -0.8370    0.8580    0.8390 C   0  0  0  0  0  0  0  0  0  0  0  0
    0.5760    0.9290    0.3670 N   0  0  0  0  0  0  0  0  0  0  0  0
    1.1500   -0.1330   -0.3380 C   0  0  0  0  0  0  0  0  0  0  0  0
    0.3490   -1.1360   -0.5010 O   0  0  0  0  0  0  0  0  0  0  0  0
    2.4700   -0.2350   -0.8850 C   0  0  0  0  0  0  0  0  0  0  0  0
    3.5600    0.7210   -0.8650 C   0  0  0  0  0  0  0  0  0  0  0  0
    4.8640    0.2260   -1.4020 N   0  0  0  0  0  0  0  0  0  0  0  0
    5.8850   -0.2560   -0.5180 C   0  0  1  0  0  0  0  0  0  0  0  0
    5.4550   -1.1940    0.3780 F   0  0  0  0  0  0  0  0  0  0  0  0
    6.8570   -0.8730   -1.3070 F   0  0  0  0  0  0  0  0  0  0  0  0
    6.5240    0.7890    0.1350 F   0  0  0  0  0  0  0  0  0  0  0  0
    3.6700    1.9270   -0.4300 C   0  0  0  0  0  0  0  0  0  0  0  0
    2.8470    2.7860    0.1720 F   0  0  0  0  0  0  0  0  0  0  0  0
    4.9500    2.5200   -0.6490 F   0  0  0  0  0  0  0  0  0  0  0  0
    2.7730   -1.4180   -1.4980 C   0  0  0  0  0  0  0  0  0  0  0  0
    4.0240   -1.5290   -2.0300 F   0  0  0  0  0  0  0  0  0  0  0  0
    1.8720   -2.5510   -1.6170 C   0  0  2  0  0  0  0  0  0  0  0  0
    2.6810   -3.5810   -2.2300 F   0  0  0  0  0  0  0  0  0  0  0  0
    0.8080   -2.3350   -2.4370 F   0  0  0  0  0  0  0  0  0  0  0  0
    1.5080   -3.1000   -0.4080 F   0  0  0  0  0  0  0  0  0  0  0  0
   -3.6480    1.9610    0.5520 C   0  0  1  0  0  0  0  0  0  0  0  0
   -5.0340    1.9340    0.5430 F   0  0  0  0  0  0  0  0  0  0  0  0
   -3.2380    1.9600    1.8900 F   0  0  0  0  0  0  0  0  0  0  0  0
   -3.1560    3.0710   -0.0600 F   0  0  0  0  0  0  0  0  0  0  0  0
  1  2  1  0
  2  3  1  0
  3  4  2  0
  3  5  1  0
  5  6  1  6
  5  7  1  0
  5 28  1  0
  7  8  1  0
  8  9  1  0
  9 10  1  0
 10 11  2  0
 10 12  1  0
 12 13  1  0
 12 22  2  3
 13 14  1  0
 13 19  2  3
 14 15  1  0
 15 16  1  1
 15 17  1  0
 15 18  1  0
 19 20  1  0
 19 21  1  0
 22 23  1  0
 22 24  1  0
 24 25  1  6
 24 26  1  0
 24 27  1  0
 28 29  1  1
 28 30  1  0
 28 31  1  0
M  END
