
     RDKit          3D

 25 25  0  0  0  0  0  0  0  0999 V2000
    0.5950   -4.1200    1.5660 C   0  0  0  0  0  0  0  0  0  0  0  0
    0.5900   -3.7270    0.2500 O   0  0  0  0  0  0  0  0  0  0  0  0
    0.1060   -2.4090    0.1360 C   0  0  1  0  0  0  0  0  0  0  0  0
    1.1220   -1.6190   -0.6250 C   0  0  0  0  0  0  0  0  0  0  0  0
    1.9950   -0.7310    0.2170 C   0  0  1  0  0  0  0  0  0  0  0  0
    2.7060   -1.5290    1.1050 O   0  0  0  0  0  0  0  0  0  0  0  0
    3.0440   -0.1540   -0.7400 C   0  0  0  0  0  0  0  0  0  0  0  0
    3.9880    0.7440   -0.0390 C   0  0  0  0  0  0  0  0  0  0  0  0
    3.8690    0.9170    1.1930 O   0  0  0  0  0  0  0  0  0  0  0  0
    5.0040    1.3910   -0.7570 N   0  0  0  0  0  0  0  0  0  0  0  0
    5.9000    2.2590   -0.0180 C   0  0  0  0  0  0  0  0  0  0  0  0
    6.8170    2.7880   -0.9180 O   0  0  0  0  0  0  0  0  0  0  0  0
    1.2300    0.3550    0.9080 C   0  0  0  0  0  0  0  0  0  0  0  0
    1.1320    1.5840    0.1520 N   0  0  0  0  0  0  0  0  0  0  0  0
    0.2940    1.7620   -0.9820 C   0  0  0  0  0  0  0  0  0  0  0  0
    0.8020    2.4500   -1.9390 O   0  0  0  0  0  0  0  0  0  0  0  0
   -0.9690    1.2700   -1.1210 O   0  0  0  0  0  0  0  0  0  0  0  0
   -2.0440    1.3850   -0.2110 C   0  0  0  0  0  0  0  0  0  0  0  0
   -3.1240    0.4400   -0.6950 C   0  0  2  0  0  0  0  0  0  0  0  0
   -4.1350    0.1150    0.3560 C   0  0  0  0  0  0  0  0  0  0  0  0
   -4.8650    1.3310    0.8760 C   0  0  0  0  0  0  0  0  0  0  0  0
   -5.5700    1.9990   -0.1910 N   0  0  0  0  0  0  0  0  0  0  0  0
   -2.5570   -0.8470   -1.2460 C   0  0  0  0  0  0  0  0  0  0  0  0
   -2.1240   -1.8070   -0.1600 C   0  0  0  0  0  0  0  0  0  0  0  0
   -1.0750   -2.5540   -0.6360 O   0  0  0  0  0  0  0  0  0  0  0  0
  1  2  1  0
  3  2  1  6
  3  4  1  0
  3 25  1  0
  4  5  1  0
  5  6  1  1
  5  7  1  0
  5 13  1  0
  7  8  1  0
  8  9  2  0
  8 10  1  0
 10 11  1  0
 11 12  1  0
 13 14  1  0
 14 15  1  0
 15 16  2  0
 15 17  1  0
 17 18  1  0
 18 19  1  0
 19 20  1  1
 19 23  1  0
 20 21  1  0
 21 22  1  0
 23 24  1  0
 24 25  1  0
M  CHG  1  22   1
M  END
