
     RDKit          3D

 24 25  0  0  0  0  0  0  0  0999 V2000
    8.5750   -0.3570   -1.2450 C   0  0  0  0  0  0  0  0  0  0  0  0
    7.3860   -0.9650   -0.8010 O   0  0  0  0  0  0  0  0  0  0  0  0
    6.1430   -0.3430   -0.9010 C   0  0  0  0  0  0  0  0  0  0  0  0
    6.1090    0.7980   -1.4100 O   0  0  0  0  0  0  0  0  0  0  0  0
    4.9250   -1.0250   -0.4190 C   0  0  0  0  0  0  0  0  0  0  0  0
    3.7250   -0.4740   -0.4940 C   0  0  0  0  0  0  0  0  0  0  0  0
    3.4370    0.8180   -1.0340 N   0  0  0  0  0  0  0  0  0  0  0  0
    2.7170   -1.4030    0.0680 C   0  0  2  0  0  0  0  0  0  0  0  0
    2.1910   -0.8220    1.2200 O   0  0  0  0  0  0  0  0  0  0  0  0
    0.8220   -0.7560    1.1110 C   0  0  0  0  0  0  0  0  0  0  0  0
    0.1860   -0.1360    2.3250 C   0  0  0  0  0  0  0  0  0  0  0  0
   -1.1800   -0.0610    2.2390 O   0  0  0  0  0  0  0  0  0  0  0  0
   -1.6650    0.6890    1.1860 C   0  0  1  0  0  0  0  0  0  0  0  0
   -2.4490   -0.2850    0.2950 C   0  0  0  0  0  0  0  0  0  0  0  0
   -2.9990    0.5160   -0.8400 C   0  0  0  0  0  0  0  0  0  0  0  0
   -4.2330    1.2410   -0.4430 C   0  0  1  0  0  0  0  0  0  0  0  0
   -5.4010    0.9440   -1.3910 C   0  0  0  0  0  0  0  0  0  0  0  0
   -5.7270   -0.4600   -1.4140 N   0  0  0  0  0  0  0  0  0  0  0  0
   -4.7270    1.0090    0.9360 C   0  0  0  0  0  0  0  0  0  0  0  0
   -3.8270    1.1140    1.9460 O   0  0  0  0  0  0  0  0  0  0  0  0
   -2.6430    1.7540    1.6430 C   0  0  0  0  0  0  0  0  0  0  0  0
    3.5260   -2.5710    0.4780 C   0  0  0  0  0  0  0  0  0  0  0  0
    3.0640   -3.6210    1.0170 O   0  0  0  0  0  0  0  0  0  0  0  0
    4.8390   -2.2770    0.1560 O   0  0  0  0  0  0  0  0  0  0  0  0
  1  2  1  0
  2  3  1  0
  3  4  2  0
  3  5  1  0
  5  6  2  0
  5 24  1  0
  6  7  1  0
  6  8  1  0
  8  9  1  1
  8 22  1  0
  9 10  1  0
 10 11  1  0
 11 12  1  0
 13 12  1  1
 13 14  1  0
 13 21  1  0
 14 15  1  0
 15 16  1  0
 16 17  1  6
 16 19  1  0
 17 18  1  0
 19 20  1  0
 20 21  1  0
 22 23  2  0
 22 24  1  0
M  CHG  1  18   1
M  END
