
     RDKit          3D

 25 25  0  0  0  0  0  0  0  0999 V2000
   -6.1320   -2.1990   -1.2770 C   0  0  0  0  0  0  0  0  0  0  0  0
   -6.5640   -0.9050   -1.0810 O   0  0  0  0  0  0  0  0  0  0  0  0
   -5.5870    0.0360   -1.3290 C   0  0  1  0  0  0  0  0  0  0  0  0
   -6.0190    0.9970   -2.4130 C   0  0  0  0  0  0  0  0  0  0  0  0
   -5.2730    0.7970   -0.0720 C   0  0  0  0  0  0  0  0  0  0  0  0
   -5.8920    0.5060    0.9710 O   0  0  0  0  0  0  0  0  0  0  0  0
   -4.3330    1.7910   -0.0480 O   0  0  0  0  0  0  0  0  0  0  0  0
   -3.9990    2.5290    1.0850 C   0  0  0  0  0  0  0  0  0  0  0  0
   -3.4620    1.6910    2.2240 C   0  0  0  0  0  0  0  0  0  0  0  0
   -2.2970    0.9870    1.8840 O   0  0  0  0  0  0  0  0  0  0  0  0
   -1.1380    1.6090    1.4790 C   0  0  0  0  0  0  0  0  0  0  0  0
   -1.0950    2.8520    1.4030 O   0  0  0  0  0  0  0  0  0  0  0  0
    0.0010    0.8420    1.1510 N   0  0  0  0  0  0  0  0  0  0  0  0
    1.2310    1.4090    0.7280 C   0  0  0  0  0  0  0  0  0  0  0  0
    1.2870    2.6640    0.6470 O   0  0  0  0  0  0  0  0  0  0  0  0
    2.3760    0.5290    0.4030 C   0  0  2  0  0  0  0  0  0  0  0  0
    2.0010   -0.7780    0.5870 O   0  0  0  0  0  0  0  0  0  0  0  0
    2.9360   -1.6740    0.0140 C   0  0  0  0  0  0  0  0  0  0  0  0
    4.2670   -1.0940    0.3030 C   0  0  0  0  0  0  0  0  0  0  0  0
    5.3250   -1.2580   -0.4590 C   0  0  0  0  0  0  0  0  0  0  0  0
    5.3220   -2.0550   -1.7220 C   0  0  0  0  0  0  0  0  0  0  0  0
    6.3030   -3.1220   -1.5230 N   0  0  0  0  0  0  0  0  0  0  0  0
    4.3890   -0.2830    1.5370 C   0  0  0  0  0  0  0  0  0  0  0  0
    3.5120    0.9350    1.3430 C   0  0  1  0  0  0  0  0  0  0  0  0
    4.2910    1.9440    0.6700 N   0  0  0  0  0  0  0  0  0  0  0  0
  1  2  1  0
  2  3  1  0
  3  4  1  6
  3  5  1  0
  5  6  2  0
  5  7  1  0
  7  8  1  0
  8  9  1  0
  9 10  1  0
 10 11  1  0
 11 12  2  0
 11 13  1  0
 13 14  1  0
 14 15  2  0
 16 14  1  1
 16 17  1  0
 16 24  1  0
 17 18  1  0
 18 19  1  0
 19 20  2  3
 19 23  1  0
 20 21  1  0
 21 22  1  0
 23 24  1  0
 24 25  1  6
M  CHG  1  22   1
M  END
