
     RDKit          3D

 25 26  0  0  0  0  0  0  0  0999 V2000
   -0.2620    1.8500    0.9190 N   0  0  0  0  0  0  0  0  0  0  0  0
   -0.7780    0.8000    1.6870 C   0  0  2  0  0  0  0  0  0  0  0  0
    0.1420   -0.0190    2.5380 C   0  0  0  0  0  0  0  0  0  0  0  0
    1.1980   -0.7010    1.9740 N   0  0  0  0  0  0  0  0  0  0  0  0
    2.3990   -0.0620    1.3320 C   0  0  0  0  0  0  0  0  0  0  0  0
    2.4220    1.1410    1.3490 O   0  0  0  0  0  0  0  0  0  0  0  0
    3.2230   -1.0820    0.8600 N   0  0  0  0  0  0  0  0  0  0  0  0
    4.5120   -0.0790    0.2810 C   0  0  0  0  0  0  0  0  0  0  0  0
    4.3150    1.0630    0.4930 O   0  0  0  0  0  0  0  0  0  0  0  0
    5.5510   -0.8230   -0.3380 C   0  0  0  0  0  0  0  0  0  0  0  0
    5.5570   -2.1850   -0.4850 O   0  0  0  0  0  0  0  0  0  0  0  0
    6.5990   -0.1760   -0.8090 C   0  0  0  0  0  0  0  0  0  0  0  0
    7.1260    1.2010   -0.9300 C   0  0  0  0  0  0  0  0  0  0  0  0
    8.4050    0.7270   -1.2230 O   0  0  0  0  0  0  0  0  0  0  0  0
    7.8670   -0.5000   -1.5200 C   0  0  0  0  0  0  0  0  0  0  0  0
   -1.8290   -0.0400    1.0320 C   0  0  0  0  0  0  0  0  0  0  0  0
   -3.0570    0.7300    0.6400 C   0  0  1  0  0  0  0  0  0  0  0  0
   -2.8640    1.6870   -0.3060 O   0  0  0  0  0  0  0  0  0  0  0  0
   -4.2600   -0.1080    0.5190 C   0  0  0  0  0  0  0  0  0  0  0  0
   -5.1210   -0.1620   -0.4480 C   0  0  0  0  0  0  0  0  0  0  0  0
   -5.0510    0.6490   -1.6730 C   0  0  0  0  0  0  0  0  0  0  0  0
   -5.8920    0.1540   -2.6730 O   0  0  0  0  0  0  0  0  0  0  0  0
   -5.9070   -1.2370   -2.6490 C   0  0  0  0  0  0  0  0  0  0  0  0
   -6.8450   -1.6040   -1.4880 C   0  0  0  0  0  0  0  0  0  0  0  0
   -6.1980   -1.0380   -0.3410 O   0  0  0  0  0  0  0  0  0  0  0  0
  2  1  1  6
  2  3  1  0
  2 16  1  0
  3  4  1  0
  4  5  1  0
  5  6  2  0
  5  7  1  0
  7  8  1  0
  8  9  2  0
  8 10  1  0
 10 11  1  0
 10 12  2  3
 12 13  1  0
 12 15  1  0
 13 14  1  0
 14 15  1  0
 16 17  1  0
 17 18  1  6
 17 19  1  0
 19 20  2  3
 20 21  1  0
 20 25  1  0
 21 22  1  0
 22 23  1  0
 23 24  1  0
 24 25  1  0
M  CHG  1   1   1
M  END
