
     RDKit          3D

 25 26  0  0  0  0  0  0  0  0999 V2000
   -4.2500    1.3670   -2.2460 C   0  0  0  0  0  0  0  0  0  0  0  0
   -3.8120    0.7590   -0.9230 C   0  0  1  0  0  0  0  0  0  0  0  0
   -2.4300    1.1640   -0.6850 N   0  0  0  0  0  0  0  0  0  0  0  0
   -1.7180    0.7630    0.4710 C   0  0  0  0  0  0  0  0  0  0  0  0
   -2.2410    0.0410    1.3450 O   0  0  0  0  0  0  0  0  0  0  0  0
   -0.3100    1.2030    0.6660 C   0  0  0  0  0  0  0  0  0  0  0  0
    0.2680    0.6760    1.9460 C   0  0  0  0  0  0  0  0  0  0  0  0
    1.6200    1.1230    2.1010 N   0  0  0  0  0  0  0  0  0  0  0  0
    2.6120    0.7640    1.1630 C   0  0  0  0  0  0  0  0  0  0  0  0
    2.3310    0.0450    0.1830 O   0  0  0  0  0  0  0  0  0  0  0  0
    3.9860    1.2790    1.4010 C   0  0  0  0  0  0  0  0  0  0  0  0
    4.8140    0.8470    0.4020 O   0  0  0  0  0  0  0  0  0  0  0  0
    4.9330   -0.5170    0.2580 C   0  0  1  0  0  0  0  0  0  0  0  0
    4.6490   -0.8880   -1.1680 C   0  0  0  0  0  0  0  0  0  0  0  0
    5.9770   -1.2140   -1.7440 C   0  0  0  0  0  0  0  0  0  0  0  0
    6.9530   -0.9070   -0.8130 O   0  0  0  0  0  0  0  0  0  0  0  0
    6.3580   -0.9950    0.4360 C   0  0  0  0  0  0  0  0  0  0  0  0
   -4.6630    1.3280    0.1260 C   0  0  0  0  0  0  0  0  0  0  0  0
   -4.5060    2.5350    0.4470 O   0  0  0  0  0  0  0  0  0  0  0  0
   -5.6070    0.5320    0.7310 O   0  0  0  0  0  0  0  0  0  0  0  0
   -5.3470   -0.8250    0.9610 C   0  0  0  0  0  0  0  0  0  0  0  0
   -4.5350   -1.4500   -0.1150 C   0  0  0  0  0  0  0  0  0  0  0  0
   -4.4870   -2.8730   -0.2550 N   0  0  0  0  0  0  0  0  0  0  0  0
   -3.8430   -0.7150   -0.9640 C   0  0  0  0  0  0  0  0  0  0  0  0
   -3.1040   -1.3480   -1.9450 O   0  0  0  0  0  0  0  0  0  0  0  0
  2  1  1  6
  2  3  1  0
  2 18  1  0
  2 24  1  0
  3  4  1  0
  4  5  2  0
  4  6  1  0
  6  7  1  0
  7  8  1  0
  8  9  1  0
  9 10  2  0
  9 11  1  0
 11 12  1  0
 13 12  1  6
 13 14  1  0
 13 17  1  0
 14 15  1  0
 15 16  1  0
 16 17  1  0
 18 19  2  0
 18 20  1  0
 20 21  1  0
 21 22  1  0
 22 23  1  0
 22 24  2  0
 24 25  1  0
M  CHG  1  23   1
M  END
