
     RDKit          3D

 43 47  0  0  0  0  0  0  0  0999 V2000
    1.1880    5.5040   -0.7850 O   0  0  0  0  0  0  0  0  0  0  0  0
    1.1290    4.1900   -0.9480 C   0  0  0  0  0  0  0  0  0  0  0  0
    1.7260    3.5000    0.1070 N   0  0  0  0  0  0  0  0  0  0  0  0
    1.1950    2.6360    1.1360 C   0  0  0  0  0  0  0  0  0  0  0  0
    1.6940    1.2230    1.0200 C   0  0  1  0  0  0  0  0  0  0  0  0
    2.4170    0.9660   -0.2690 C   0  0  0  0  0  0  0  0  0  0  0  0
    3.2090   -0.1900   -0.2760 O   0  0  0  0  0  0  0  0  0  0  0  0
    3.9440   -0.5830   -1.3760 C   0  0  0  0  0  0  0  0  0  0  0  0
    3.8800    0.1470   -2.3990 O   0  0  0  0  0  0  0  0  0  0  0  0
    4.7910   -1.7830   -1.4420 C   0  0  2  0  0  0  0  0  0  0  0  0
    4.1860   -2.7660   -2.4210 C   0  0  0  0  0  0  0  0  0  0  0  0
    3.7980   -3.8670   -1.6640 O   0  0  0  0  0  0  0  0  0  0  0  0
    4.7410   -3.8420   -0.6240 C   0  0  0  0  0  0  0  0  0  0  0  0
    4.7790   -2.4960   -0.2630 O   0  0  0  0  0  0  0  0  0  0  0  0
    2.8970    1.2010    2.0110 C   0  0  0  0  0  0  0  0  0  0  0  0
    3.6240    0.0350    1.7980 O   0  0  0  0  0  0  0  0  0  0  0  0
    2.8170   -0.9920    2.2320 C   0  0  0  0  0  0  0  0  0  0  0  0
    1.3910   -0.6680    2.4450 C   0  0  0  0  0  0  0  0  0  0  0  0
    0.7450    0.2010    1.4310 N   0  0  0  0  0  0  0  0  0  0  0  0
   -0.5780   -0.0470    1.0330 C   0  0  0  0  0  0  0  0  0  0  0  0
   -0.6110   -1.0920    0.2290 O   0  0  0  0  0  0  0  0  0  0  0  0
   -1.9130    0.4920    1.2400 C   0  0  2  0  0  0  0  0  0  0  0  0
   -2.9560   -0.5120    0.7650 C   0  0  0  0  0  0  0  0  0  0  0  0
   -2.7880   -1.8310    1.0660 C   0  0  0  0  0  0  0  0  0  0  0  0
   -3.7420   -2.7630    0.6390 C   0  0  0  0  0  0  0  0  0  0  0  0
   -4.8560   -2.3800   -0.0830 C   0  0  0  0  0  0  0  0  0  0  0  0
   -5.8100   -3.3030   -0.5120 O   0  0  0  0  0  0  0  0  0  0  0  0
   -6.8590   -3.5760    0.3070 O   0  0  0  0  0  0  0  0  0  0  0  0
   -7.4770   -4.6560   -0.1030 O   0  0  0  0  0  0  0  0  0  0  0  0
   -7.2440   -5.7010    0.6350 O   0  0  0  0  0  0  0  0  0  0  0  0
   -5.0100   -1.0450   -0.3770 C   0  0  0  0  0  0  0  0  0  0  0  0
   -4.0530   -0.1210    0.0530 C   0  0  0  0  0  0  0  0  0  0  0  0
   -2.2700    1.8130    0.8470 N   0  0  0  0  0  0  0  0  0  0  0  0
   -2.6490    2.8010    1.7320 C   0  0  0  0  0  0  0  0  0  0  0  0
   -2.9640    3.9550    1.0660 C   0  0  0  0  0  0  0  0  0  0  0  0
   -2.7750    3.6550   -0.2040 N   0  0  0  0  0  0  0  0  0  0  0  0
   -2.3510    2.3530   -0.3510 C   0  0  0  0  0  0  0  0  0  0  0  0
   -2.0830    1.7750   -1.6420 N   0  0  0  0  0  0  0  0  0  0  0  0
   -0.8380    1.5680   -2.2840 C   0  0  0  0  0  0  0  0  0  0  0  0
   -0.5710    0.3200   -2.5290 O   0  0  0  0  0  0  0  0  0  0  0  0
    0.1690    2.5400   -2.7050 C   0  0  0  0  0  0  0  0  0  0  0  0
    0.8550    2.1630   -3.7720 O   0  0  0  0  0  0  0  0  0  0  0  0
    0.4890    3.7890   -2.1330 N   0  0  0  0  0  0  0  0  0  0  0  0
  1  2  2  0
  2  3  1  0
  2 43  1  0
  3  4  1  0
  4  5  1  0
  5  6  1  6
  5 15  1  0
  5 19  1  0
  6  7  1  0
  7  8  1  0
  8  9  2  0
 10  8  1  1
 10 11  1  0
 10 14  1  0
 11 12  1  0
 12 13  1  0
 13 14  1  0
 15 16  1  0
 16 17  1  0
 17 18  1  0
 18 19  1  0
 19 20  1  0
 20 21  2  0
 20 22  1  0
 22 23  1  6
 22 33  1  0
 23 24  2  0
 23 32  1  0
 24 25  1  0
 25 26  2  0
 26 27  1  0
 26 31  1  0
 27 28  1  0
 28 29  1  0
 29 30  1  0
 31 32  2  0
 33 34  1  0
 33 37  1  0
 34 35  2  0
 35 36  1  0
 36 37  2  0
 37 38  1  0
 38 39  1  0
 39 40  2  0
 39 41  1  0
 41 42  2  0
 41 43  1  0
M  END
