
     RDKit          3D

 43 46  0  0  0  0  0  0  0  0999 V2000
  -11.0220    1.1680    0.0160 C   0  0  0  0  0  0  0  0  0  0  0  0
   -9.6710    0.9560   -0.6410 C   0  0  0  0  0  0  0  0  0  0  0  0
   -9.1070   -0.2010   -0.0480 O   0  0  0  0  0  0  0  0  0  0  0  0
   -7.8670   -0.7080   -0.3970 C   0  0  0  0  0  0  0  0  0  0  0  0
   -7.2140   -0.1030   -1.2890 O   0  0  0  0  0  0  0  0  0  0  0  0
   -7.3150   -1.8280    0.1710 O   0  0  0  0  0  0  0  0  0  0  0  0
   -6.0590   -2.3530   -0.1740 C   0  0  0  0  0  0  0  0  0  0  0  0
   -4.9680   -1.3520    0.0760 C   0  0  0  0  0  0  0  0  0  0  0  0
   -5.0580   -0.1530    0.5380 O   0  0  0  0  0  0  0  0  0  0  0  0
   -3.8610    0.4170    0.6130 C   0  0  0  0  0  0  0  0  0  0  0  0
   -3.6570    1.5970    1.0330 N   0  0  0  0  0  0  0  0  0  0  0  0
   -2.9610   -0.4520    0.1810 N   0  0  0  0  0  0  0  0  0  0  0  0
   -1.6000   -0.4140    0.0360 C   0  0  0  0  0  0  0  0  0  0  0  0
   -0.8390    0.5670    0.3250 C   0  0  0  0  0  0  0  0  0  0  0  0
   -1.0570    1.8890    0.8600 C   0  0  0  0  0  0  0  0  0  0  0  0
   -1.2220    3.0680    0.1110 C   0  0  0  0  0  0  0  0  0  0  0  0
   -1.3890    4.0980    0.9460 N   0  0  0  0  0  0  0  0  0  0  0  0
   -1.3310    3.5940    2.1860 C   0  0  0  0  0  0  0  0  0  0  0  0
   -1.1370    2.3010    2.1250 O   0  0  0  0  0  0  0  0  0  0  0  0
   -0.9730   -1.5910   -0.4810 C   0  0  0  0  0  0  0  0  0  0  0  0
    0.3090   -1.6010   -0.6400 C   0  0  0  0  0  0  0  0  0  0  0  0
    1.1270   -2.6940   -1.1480 C   0  0  0  0  0  0  0  0  0  0  0  0
    2.4670   -2.5350   -1.2530 C   0  0  0  0  0  0  0  0  0  0  0  0
    3.2690   -1.4150   -0.9340 N   0  0  0  0  0  0  0  0  0  0  0  0
    4.5080   -1.6740   -1.1800 C   0  0  0  0  0  0  0  0  0  0  0  0
    5.6150   -0.7810   -0.9820 N   0  0  0  0  0  0  0  0  0  0  0  0
    5.3190    0.6320   -0.8760 C   0  0  2  0  0  0  0  0  0  0  0  0
    6.6560    1.3530   -0.7010 C   0  0  0  0  0  0  0  0  0  0  0  0
    7.2320    0.8490    0.4640 O   0  0  0  0  0  0  0  0  0  0  0  0
    8.4630    1.4380    0.7280 C   0  0  0  0  0  0  0  0  0  0  0  0
    8.9830    0.8000    2.0190 C   0  0  0  0  0  0  0  0  0  0  0  0
    8.0580    1.0620    3.0370 O   0  0  0  0  0  0  0  0  0  0  0  0
    8.4560    0.5340    4.1730 O   0  0  0  0  0  0  0  0  0  0  0  0
    4.5380    0.9130    0.3690 C   0  0  0  0  0  0  0  0  0  0  0  0
    4.2570   -0.0460    1.1280 O   0  0  0  0  0  0  0  0  0  0  0  0
    4.1180    2.1710    0.7130 O   0  0  0  0  0  0  0  0  0  0  0  0
    4.6640   -2.9720   -1.6820 O   0  0  0  0  0  0  0  0  0  0  0  0
    3.3870   -3.5460   -1.7400 C   0  0  0  0  0  0  0  0  0  0  0  0
    3.1160   -4.7170   -2.1430 O   0  0  0  0  0  0  0  0  0  0  0  0
   -1.7330   -2.6790   -0.8020 C   0  0  0  0  0  0  0  0  0  0  0  0
   -1.2440   -3.7730   -1.2710 N   0  0  0  0  0  0  0  0  0  0  0  0
   -3.0530   -2.6360   -0.6310 O   0  0  0  0  0  0  0  0  0  0  0  0
   -3.6320   -1.5830   -0.1660 C   0  0  0  0  0  0  0  0  0  0  0  0
  1  2  1  0
  2  3  1  0
  3  4  1  0
  4  5  2  0
  4  6  1  0
  6  7  1  0
  7  8  1  0
  8  9  1  0
  8 43  2  0
  9 10  1  0
 10 11  2  0
 10 12  1  0
 12 13  1  0
 12 43  1  0
 13 14  2  3
 13 20  1  0
 14 15  1  0
 15 16  2  0
 15 19  1  0
 16 17  1  0
 17 18  2  0
 18 19  1  0
 20 21  2  3
 20 40  1  0
 21 22  1  0
 22 23  2  3
 23 24  1  0
 23 38  1  0
 24 25  2  0
 25 26  1  0
 25 37  1  0
 26 27  1  0
 27 28  1  1
 27 34  1  0
 28 29  1  0
 29 30  1  0
 30 31  1  0
 31 32  1  0
 32 33  1  0
 34 35  2  0
 34 36  1  0
 37 38  1  0
 38 39  2  0
 40 41  2  0
 40 42  1  0
 42 43  1  0
M  END
