
     RDKit          3D

 43 45  0  0  0  0  0  0  0  0999 V2000
   -5.1760   -0.2870    0.2090 C   0  0  0  0  0  0  0  0  0  0  0  0
   -4.5930    1.1010    0.2610 C   0  0  2  0  0  0  0  0  0  0  0  0
   -5.5570    1.9630   -0.5850 C   0  0  0  0  0  0  0  0  0  0  0  0
   -3.3430    1.2050   -0.4270 O   0  0  0  0  0  0  0  0  0  0  0  0
   -2.2450    0.4180   -0.0740 C   0  0  0  0  0  0  0  0  0  0  0  0
   -2.4450   -0.3730    0.8720 O   0  0  0  0  0  0  0  0  0  0  0  0
   -0.9340    0.5510   -0.8180 C   0  0  2  0  0  0  0  0  0  0  0  0
   -1.2350   -0.0990   -2.1640 C   0  0  0  0  0  0  0  0  0  0  0  0
   -1.8720   -1.4500   -1.7910 C   0  0  0  0  0  0  0  0  0  0  0  0
   -0.8600   -2.2140   -1.1640 N   0  0  0  0  0  0  0  0  0  0  0  0
    0.2440   -1.5490   -0.4950 C   0  0  0  0  0  0  0  0  0  0  0  0
    0.1700   -0.1370   -0.1270 C   0  0  2  0  0  0  0  0  0  0  0  0
    0.1030    0.1490    1.3580 C   0  0  0  0  0  0  0  0  0  0  0  0
   -0.6610    1.0670    1.7180 O   0  0  0  0  0  0  0  0  0  0  0  0
    0.8380   -0.5390    2.3310 N   0  0  0  0  0  0  0  0  0  0  0  0
    0.8310   -0.3370    3.7390 C   0  0  0  0  0  0  0  0  0  0  0  0
   -0.4480   -0.5490    4.4600 C   0  0  0  0  0  0  0  0  0  0  0  0
   -1.4290    0.2930    4.0070 O   0  0  0  0  0  0  0  0  0  0  0  0
    1.5630    0.4660   -0.4300 C   0  0  0  0  0  0  0  0  0  0  0  0
    1.4160    1.8500   -0.7760 N   0  0  0  0  0  0  0  0  0  0  0  0
    1.7850    2.3940   -1.8530 C   0  0  0  0  0  0  0  0  0  0  0  0
    2.3970    1.6210   -2.8270 O   0  0  0  0  0  0  0  0  0  0  0  0
    1.6050    3.8390   -2.1570 C   0  0  0  0  0  0  0  0  0  0  0  0
    2.8610    4.4940   -2.4120 N   0  0  0  0  0  0  0  0  0  0  0  0
    3.9160    4.5550   -1.4620 C   0  0  0  0  0  0  0  0  0  0  0  0
    3.7620    4.0220   -0.3580 O   0  0  0  0  0  0  0  0  0  0  0  0
    5.0940    5.2040   -1.7720 O   0  0  0  0  0  0  0  0  0  0  0  0
    2.5570   -0.2620   -0.4400 N   0  0  0  0  0  0  0  0  0  0  0  0
    3.2480   -1.3930   -0.3450 C   0  0  0  0  0  0  0  0  0  0  0  0
    4.6740   -1.3950   -0.3510 C   0  0  0  0  0  0  0  0  0  0  0  0
    5.3900   -2.5570   -0.2740 C   0  0  0  0  0  0  0  0  0  0  0  0
    4.7250   -3.7820   -0.1850 C   0  0  0  0  0  0  0  0  0  0  0  0
    3.3480   -3.7600   -0.1790 C   0  0  0  0  0  0  0  0  0  0  0  0
    2.7590   -2.6180   -0.2560 N   0  0  0  0  0  0  0  0  0  0  0  0
    2.5560   -5.0180   -0.1120 C   0  0  0  0  0  0  0  0  0  0  0  0
    3.1970   -6.0780   -0.0620 O   0  0  0  0  0  0  0  0  0  0  0  0
    1.1430   -4.9150   -0.1080 O   0  0  0  0  0  0  0  0  0  0  0  0
    0.3680   -4.3810   -1.0150 O   0  0  0  0  0  0  0  0  0  0  0  0
   -0.7530   -3.6630   -1.1400 C   0  0  0  0  0  0  0  0  0  0  0  0
   -1.9110   -4.2360   -1.2630 O   0  0  0  0  0  0  0  0  0  0  0  0
   -4.5580    1.6630    1.6120 C   0  0  0  0  0  0  0  0  0  0  0  0
   -3.5020    2.2180    2.0160 O   0  0  0  0  0  0  0  0  0  0  0  0
   -5.6220    1.6140    2.4780 O   0  0  0  0  0  0  0  0  0  0  0  0
  2  1  1  1
  2  3  1  0
  2  4  1  0
  2 41  1  0
  4  5  1  0
  5  6  2  0
  7  5  1  1
  7  8  1  0
  7 12  1  0
  8  9  1  0
  9 10  1  0
 10 11  1  0
 10 39  1  0
 11 12  1  0
 12 13  1  1
 12 19  1  0
 13 14  2  0
 13 15  1  0
 15 16  1  0
 16 17  1  0
 17 18  1  0
 19 20  1  0
 19 28  2  0
 20 21  2  3
 21 22  1  0
 21 23  1  0
 23 24  1  0
 24 25  1  0
 25 26  2  0
 25 27  1  0
 28 29  1  0
 29 30  2  0
 29 34  1  0
 30 31  1  0
 31 32  2  0
 32 33  1  0
 33 34  2  0
 33 35  1  0
 35 36  2  0
 35 37  1  0
 37 38  1  0
 38 39  1  0
 39 40  2  0
 41 42  2  0
 41 43  1  0
M  END
