
     RDKit          3D

 43 46  0  0  0  0  0  0  0  0999 V2000
    8.9150   -0.5270    0.9790 C   0  0  0  0  0  0  0  0  0  0  0  0
    7.5230   -0.7140    1.2120 O   0  0  0  0  0  0  0  0  0  0  0  0
    6.5760    0.1720    0.7220 C   0  0  0  0  0  0  0  0  0  0  0  0
    7.0260    1.2620   -0.0110 C   0  0  0  0  0  0  0  0  0  0  0  0
    6.1420    2.1800   -0.5260 C   0  0  0  0  0  0  0  0  0  0  0  0
    4.7730    1.9930   -0.2940 C   0  0  0  0  0  0  0  0  0  0  0  0
    4.2760    0.9380    0.4200 C   0  0  0  0  0  0  0  0  0  0  0  0
    2.8380    0.6670    0.6820 C   0  0  0  0  0  0  0  0  0  0  0  0
    2.2580   -0.2710   -0.2110 C   0  0  2  0  0  0  0  0  0  0  0  0
    2.1480   -0.0190   -1.6600 C   0  0  0  0  0  0  0  0  0  0  0  0
    1.8960    1.0210   -2.3010 N   0  0  0  0  0  0  0  0  0  0  0  0
    1.6040    2.3550   -2.0560 C   0  0  0  0  0  0  0  0  0  0  0  0
    0.4110    2.8020   -1.7930 N   0  0  0  0  0  0  0  0  0  0  0  0
   -0.8360    2.1840   -1.6770 C   0  0  0  0  0  0  0  0  0  0  0  0
   -1.6430    2.4140   -2.6980 O   0  0  0  0  0  0  0  0  0  0  0  0
   -1.3400    1.4030   -0.7050 O   0  0  0  0  0  0  0  0  0  0  0  0
   -1.9740    1.4320    0.4930 C   0  0  0  0  0  0  0  0  0  0  0  0
   -3.0460    0.3170    0.5330 C   0  0  1  0  0  0  0  0  0  0  0  0
   -4.3120    0.9330    0.3470 O   0  0  0  0  0  0  0  0  0  0  0  0
   -4.2990    1.6460   -0.8180 C   0  0  0  0  0  0  0  0  0  0  0  0
   -5.6840    2.2780   -0.9980 C   0  0  0  0  0  0  0  0  0  0  0  0
   -6.6570    1.2800   -1.0590 O   0  0  0  0  0  0  0  0  0  0  0  0
   -7.8540    1.7570   -1.2120 O   0  0  0  0  0  0  0  0  0  0  0  0
   -8.7030    0.8980   -0.6890 O   0  0  0  0  0  0  0  0  0  0  0  0
   -2.8900   -0.5120   -0.5960 O   0  0  0  0  0  0  0  0  0  0  0  0
   -3.7100   -1.5710   -0.8660 C   0  0  0  0  0  0  0  0  0  0  0  0
   -4.6670   -1.8710   -0.1130 O   0  0  0  0  0  0  0  0  0  0  0  0
   -3.5310   -2.3830   -2.0030 O   0  0  0  0  0  0  0  0  0  0  0  0
   -3.0340   -0.4070    1.8260 C   0  0  0  0  0  0  0  0  0  0  0  0
   -3.1060    0.3900    2.8370 O   0  0  0  0  0  0  0  0  0  0  0  0
   -2.9580   -1.8010    2.0710 N   0  0  0  0  0  0  0  0  0  0  0  0
   -3.9590   -2.3430    3.0020 C   0  0  0  0  0  0  0  0  0  0  0  0
   -1.9730   -2.6680    1.4900 C   0  0  0  0  0  0  0  0  0  0  0  0
   -2.2350   -3.9240    1.6780 O   0  0  0  0  0  0  0  0  0  0  0  0
   -0.7510   -2.2930    0.7320 C   0  0  0  0  0  0  0  0  0  0  0  0
    0.1090   -1.3160    0.9110 C   0  0  0  0  0  0  0  0  0  0  0  0
    1.1500   -1.1440   -0.0740 N   0  0  0  0  0  0  0  0  0  0  0  0
    1.2950   -1.9870   -1.2310 C   0  0  0  0  0  0  0  0  0  0  0  0
    2.2870   -1.4830   -1.9950 N   0  0  0  0  0  0  0  0  0  0  0  0
    0.3820   -3.0620   -1.4340 N   0  0  0  0  0  0  0  0  0  0  0  0
   -0.6350   -3.2160   -0.4610 C   0  0  0  0  0  0  0  0  0  0  0  0
   -1.4090   -4.1730   -0.6810 O   0  0  0  0  0  0  0  0  0  0  0  0
    5.2380    0.0380    0.9170 C   0  0  0  0  0  0  0  0  0  0  0  0
  1  2  1  0
  2  3  1  0
  3  4  2  0
  3 43  1  0
  4  5  1  0
  5  6  2  0
  6  7  1  0
  7  8  1  0
  7 43  2  0
  9  8  1  1
  9 10  1  0
  9 37  1  0
 10 11  2  0
 10 39  1  0
 11 12  1  0
 12 13  2  0
 13 14  1  0
 14 15  2  0
 14 16  1  0
 16 17  1  0
 17 18  1  0
 18 19  1  6
 18 25  1  0
 18 29  1  0
 19 20  1  0
 20 21  1  0
 21 22  1  0
 22 23  1  0
 23 24  1  0
 25 26  1  0
 26 27  2  0
 26 28  1  0
 29 30  2  0
 29 31  1  0
 31 32  1  0
 31 33  1  0
 33 34  2  0
 33 35  1  0
 35 36  2  0
 35 41  1  0
 36 37  1  0
 37 38  1  0
 38 39  2  0
 38 40  1  0
 40 41  1  0
 41 42  2  0
M  END
