
     RDKit          3D

 44 48  0  0  0  0  0  0  0  0999 V2000
   -9.4640    0.2510    1.9400 N   0  0  0  0  0  0  0  0  0  0  0  0
   -9.7230    0.0010    0.5750 C   0  0  0  0  0  0  0  0  0  0  0  0
  -10.8790   -0.2560    0.2410 O   0  0  0  0  0  0  0  0  0  0  0  0
   -8.6210    0.0370   -0.4100 C   0  0  0  0  0  0  0  0  0  0  0  0
   -8.8490   -0.2280   -1.7160 C   0  0  0  0  0  0  0  0  0  0  0  0
   -7.7590   -0.1270   -2.5660 C   0  0  0  0  0  0  0  0  0  0  0  0
   -6.4840    0.2370   -2.0960 C   0  0  0  0  0  0  0  0  0  0  0  0
   -6.2850    0.4840   -0.8180 N   0  0  0  0  0  0  0  0  0  0  0  0
   -5.0560    0.9070   -0.2790 C   0  0  2  0  0  0  0  0  0  0  0  0
   -3.8790    0.2540   -0.4350 O   0  0  0  0  0  0  0  0  0  0  0  0
   -3.1020    0.6280    0.7220 C   0  0  2  0  0  0  0  0  0  0  0  0
   -2.7060   -0.7920    1.2630 C   0  0  0  0  0  0  0  0  0  0  0  0
   -1.6880   -1.0920    0.4100 O   0  0  0  0  0  0  0  0  0  0  0  0
   -1.6670   -2.3690   -0.5640 P   0  0  1  0  0  0  0  0  0  0  0  0
   -1.0540   -3.6090   -0.1730 O   0  0  0  0  0  0  0  0  0  0  0  0
   -3.2410   -2.6540   -1.2270 O   0  0  0  0  0  0  0  0  0  0  0  0
   -0.6930   -1.8120   -1.9690 O   0  0  0  0  0  0  0  0  0  0  0  0
    0.4610   -0.8210   -1.1740 P   0  0  1  0  0  0  0  0  0  0  0  0
    0.3490    0.6270   -1.4690 O   0  0  0  0  0  0  0  0  0  0  0  0
    0.3570   -0.9900    0.5330 O   0  0  0  0  0  0  0  0  0  0  0  0
    2.0070   -1.3580   -1.5740 O   0  0  0  0  0  0  0  0  0  0  0  0
    2.9040   -0.4940   -0.9230 C   0  0  0  0  0  0  0  0  0  0  0  0
    4.2990   -1.0820   -1.2050 C   0  0  1  0  0  0  0  0  0  0  0  0
    5.1910   -0.2320   -0.7080 O   0  0  0  0  0  0  0  0  0  0  0  0
    6.3150   -1.0000   -0.2710 C   0  0  1  0  0  0  0  0  0  0  0  0
    6.9780    0.0080    0.5470 N   0  0  0  0  0  0  0  0  0  0  0  0
    6.5910    0.4390    1.7310 C   0  0  0  0  0  0  0  0  0  0  0  0
    7.3640    1.5160    2.0650 N   0  0  0  0  0  0  0  0  0  0  0  0
    8.2180    1.7120    1.0750 C   0  0  0  0  0  0  0  0  0  0  0  0
    9.1940    2.6970    0.8570 C   0  0  0  0  0  0  0  0  0  0  0  0
    9.3960    3.6080    1.8920 N   0  0  0  0  0  0  0  0  0  0  0  0
    9.8600    2.6640   -0.3110 N   0  0  0  0  0  0  0  0  0  0  0  0
    9.5850    1.6830   -1.2530 C   0  0  0  0  0  0  0  0  0  0  0  0
    8.6670    0.7350   -1.0880 N   0  0  0  0  0  0  0  0  0  0  0  0
    7.9990    0.7660    0.0850 C   0  0  0  0  0  0  0  0  0  0  0  0
    5.7310   -2.1990    0.3260 C   0  0  2  0  0  0  0  0  0  0  0  0
    6.4560   -3.3770   -0.0440 O   0  0  0  0  0  0  0  0  0  0  0  0
    4.3920   -2.3880   -0.4070 C   0  0  2  0  0  0  0  0  0  0  0  0
    4.3960   -3.4430   -1.2980 O   0  0  0  0  0  0  0  0  0  0  0  0
   -3.7820    1.4820    1.5830 C   0  0  1  0  0  0  0  0  0  0  0  0
   -3.6130    2.8500    1.1550 O   0  0  0  0  0  0  0  0  0  0  0  0
   -5.2480    1.1270    1.2640 C   0  0  1  0  0  0  0  0  0  0  0  0
   -6.0720    2.1880    1.4830 O   0  0  0  0  0  0  0  0  0  0  0  0
   -7.3530    0.3730   -0.0110 C   0  0  0  0  0  0  0  0  0  0  0  0
  1  2  1  0
  2  3  2  0
  2  4  1  0
  4  5  2  0
  4 44  1  0
  5  6  1  0
  6  7  2  0
  7  8  1  0
  9  8  1  1
  8 44  2  0
  9 10  1  0
  9 42  1  0
 10 11  1  0
 11 12  1  1
 11 40  1  0
 12 13  1  0
 13 14  1  0
 14 15  2  0
 14 16  1  6
 14 17  1  0
 17 18  1  0
 18 19  2  0
 18 20  1  1
 18 21  1  0
 21 22  1  0
 23 22  1  1
 23 24  1  0
 23 38  1  0
 24 25  1  0
 25 26  1  1
 25 36  1  0
 26 27  1  0
 26 35  1  0
 27 28  2  0
 28 29  1  0
 29 30  2  0
 29 35  1  0
 30 31  1  0
 30 32  1  0
 32 33  2  0
 33 34  1  0
 34 35  2  0
 36 37  1  6
 36 38  1  0
 38 39  1  6
 40 41  1  6
 40 42  1  0
 42 43  1  6
M  CHG  2   8   1  16  -1
M  END
