
     RDKit          3D

 43 46  0  0  0  0  0  0  0  0999 V2000
   -4.3130    7.4450    1.0960 C   0  0  0  0  0  0  0  0  0  0  0  0
   -4.1520    6.0950    1.4660 O   0  0  0  0  0  0  0  0  0  0  0  0
   -3.0190    5.3700    1.3080 N   0  0  0  0  0  0  0  0  0  0  0  0
   -2.9880    4.2790    0.6190 C   0  0  0  0  0  0  0  0  0  0  0  0
   -1.7350    3.5220    0.4690 C   0  0  0  0  0  0  0  0  0  0  0  0
   -1.6090    2.4070   -0.2170 C   0  0  0  0  0  0  0  0  0  0  0  0
   -2.7660    1.8550   -0.8910 C   0  0  0  0  0  0  0  0  0  0  0  0
   -3.1710    0.5810   -0.8340 C   0  0  0  0  0  0  0  0  0  0  0  0
   -2.4750   -0.3360   -0.0910 O   0  0  0  0  0  0  0  0  0  0  0  0
   -3.0320   -1.5870   -0.1950 C   0  0  2  0  0  0  0  0  0  0  0  0
   -2.0200   -2.5540   -0.7850 C   0  0  0  0  0  0  0  0  0  0  0  0
   -1.2770   -3.1970    0.3730 C   0  0  0  0  0  0  0  0  0  0  0  0
    0.0030   -2.4170    0.6250 C   0  0  0  0  0  0  0  0  0  0  0  0
    1.0880   -3.3770    0.6410 N   0  0  0  0  0  0  0  0  0  0  0  0
    2.0200   -3.5550   -0.4190 C   0  0  0  0  0  0  0  0  0  0  0  0
    2.6170   -4.6940   -0.4060 O   0  0  0  0  0  0  0  0  0  0  0  0
    2.2110   -2.5740   -1.3260 O   0  0  0  0  0  0  0  0  0  0  0  0
    2.7710   -1.2800   -1.1530 C   0  0  1  0  0  0  0  0  0  0  0  0
    1.9800   -0.3380   -1.7220 O   0  0  0  0  0  0  0  0  0  0  0  0
    1.6110    0.7690   -1.0580 C   0  0  2  0  0  0  0  0  0  0  0  0
    1.7390    0.7850    0.4230 C   0  0  0  0  0  0  0  0  0  0  0  0
    3.1430    0.3360    0.7600 C   0  0  0  0  0  0  0  0  0  0  0  0
    3.3190   -1.0350    0.1990 C   0  0  2  0  0  0  0  0  0  0  0  0
    4.7440   -1.3440    0.2890 N   0  0  0  0  0  0  0  0  0  0  0  0
    5.3360   -2.3650    1.1080 C   0  0  0  0  0  0  0  0  0  0  0  0
    6.6670   -2.6050    0.4430 C   0  0  0  0  0  0  0  0  0  0  0  0
    6.9920   -1.3150   -0.1500 N   0  0  0  0  0  0  0  0  0  0  0  0
    8.2770   -0.8000   -0.3960 C   0  0  0  0  0  0  0  0  0  0  0  0
    8.7080    0.2970    0.1260 N   0  0  0  0  0  0  0  0  0  0  0  0
    5.7540   -0.6580   -0.4410 C   0  0  0  0  0  0  0  0  0  0  0  0
    5.5380    0.3260   -1.1800 O   0  0  0  0  0  0  0  0  0  0  0  0
    0.1510    1.0920   -1.4240 C   0  0  0  0  0  0  0  0  0  0  0  0
   -0.4110    1.7220   -0.3330 O   0  0  0  0  0  0  0  0  0  0  0  0
   -4.2120   -1.4890   -1.0120 N   0  0  0  0  0  0  0  0  0  0  0  0
   -5.1280   -2.5660   -1.3300 C   0  0  0  0  0  0  0  0  0  0  0  0
   -6.1590   -2.6430   -0.3680 O   0  0  0  0  0  0  0  0  0  0  0  0
   -5.5370   -2.8660    0.7880 O   0  0  0  0  0  0  0  0  0  0  0  0
   -4.2880   -0.1410   -1.4320 C   0  0  0  0  0  0  0  0  0  0  0  0
   -5.1560    0.3930   -2.1930 O   0  0  0  0  0  0  0  0  0  0  0  0
   -4.2010    3.9170    0.0590 O   0  0  0  0  0  0  0  0  0  0  0  0
   -5.3130    3.6920    0.8950 C   0  0  0  0  0  0  0  0  0  0  0  0
   -5.1630    3.8480    2.1310 O   0  0  0  0  0  0  0  0  0  0  0  0
   -6.5360    3.3090    0.3510 O   0  0  0  0  0  0  0  0  0  0  0  0
  1  2  1  0
  2  3  1  0
  3  4  2  3
  4  5  1  0
  4 40  1  0
  5  6  2  3
  6  7  1  0
  6 33  1  0
  7  8  2  0
  8  9  1  0
  8 38  1  0
  9 10  1  0
 10 11  1  6
 10 34  1  0
 11 12  1  0
 12 13  1  0
 13 14  1  0
 14 15  1  0
 15 16  2  0
 15 17  1  0
 18 17  1  1
 18 19  1  0
 18 23  1  0
 19 20  1  0
 20 21  1  1
 20 32  1  0
 21 22  1  0
 22 23  1  0
 23 24  1  6
 24 25  1  0
 24 30  1  0
 25 26  1  0
 26 27  1  0
 27 28  1  0
 27 30  1  0
 28 29  2  0
 30 31  2  0
 32 33  1  0
 34 35  1  0
 34 38  1  0
 35 36  1  0
 36 37  1  0
 38 39  2  0
 40 41  1  0
 41 42  2  0
 41 43  1  0
M  END
