
     RDKit          3D

 21 23  0  0  0  0  0  0  0  0999 V2000
    0.1860    0.1000    2.0520 C   0  0  0  0  0  0  0  0  0  0  0  0
    0.2270   -0.0260    0.5550 C   0  0  1  0  0  0  0  0  0  0  0  0
    1.2580   -0.8660    0.0400 N   0  0  0  0  0  0  0  0  0  0  0  0
    2.1280   -0.1570   -0.8750 C   0  0  0  0  0  0  0  0  0  0  0  0
    3.4590    0.1220   -0.3440 C   0  0  0  0  0  0  0  0  0  0  0  0
    4.5220   -0.3510   -0.9590 C   0  0  0  0  0  0  0  0  0  0  0  0
    5.9010   -0.1030   -0.4690 C   0  0  0  0  0  0  0  0  0  0  0  0
    5.9520    0.6810    0.6990 O   0  0  0  0  0  0  0  0  0  0  0  0
    4.8470    1.1860    1.3580 C   0  0  0  0  0  0  0  0  0  0  0  0
    3.6500    0.9160    0.8540 C   0  0  0  0  0  0  0  0  0  0  0  0
   -1.1810   -0.4350    0.1120 C   0  0  2  0  0  0  0  0  0  0  0  0
   -2.0390    0.6300    0.5470 N   0  0  0  0  0  0  0  0  0  0  0  0
   -1.7330    1.8670   -0.0730 C   0  0  0  0  0  0  0  0  0  0  0  0
   -2.8930    2.7770   -0.3150 C   0  0  0  0  0  0  0  0  0  0  0  0
   -3.8700    2.6230    0.6880 O   0  0  0  0  0  0  0  0  0  0  0  0
   -4.4070    1.3510    0.4760 C   0  0  0  0  0  0  0  0  0  0  0  0
   -3.3710    0.3250    0.8220 C   0  0  0  0  0  0  0  0  0  0  0  0
   -1.5050   -1.7170    0.8420 C   0  0  0  0  0  0  0  0  0  0  0  0
   -1.9800   -2.7090   -0.1770 C   0  0  0  0  0  0  0  0  0  0  0  0
   -1.6690   -2.1490   -1.5300 C   0  0  0  0  0  0  0  0  0  0  0  0
   -1.2850   -0.6970   -1.3490 C   0  0  0  0  0  0  0  0  0  0  0  0
  2  1  1  1
  2  3  1  0
  2 11  1  0
  3  4  1  0
  4  5  1  0
  5  6  2  0
  5 10  1  0
  6  7  1  0
  7  8  1  0
  8  9  1  0
  9 10  2  0
 11 12  1  1
 11 18  1  0
 11 21  1  0
 12 13  1  0
 12 17  1  0
 13 14  1  0
 14 15  1  0
 15 16  1  0
 16 17  1  0
 18 19  1  0
 19 20  1  0
 20 21  1  0
M  CHG  1   3   1
M  END
