
     RDKit          3D

 21 23  0  0  0  0  0  0  0  0999 V2000
    4.5320    0.0380    1.9030 C   0  0  0  0  0  0  0  0  0  0  0  0
    3.9750    0.9980    0.9470 N   0  0  0  0  0  0  0  0  0  0  0  0
    4.3530    2.2780    0.8570 C   0  0  0  0  0  0  0  0  0  0  0  0
    3.6480    2.8670   -0.1130 N   0  0  0  0  0  0  0  0  0  0  0  0
    2.8210    1.9250   -0.6300 C   0  0  0  0  0  0  0  0  0  0  0  0
    3.0050    0.7450    0.0170 C   0  0  0  0  0  0  0  0  0  0  0  0
    2.4310   -0.5920   -0.1100 C   0  0  2  0  0  0  0  0  0  0  0  0
    3.4770   -1.5040   -0.2720 O   0  0  0  0  0  0  0  0  0  0  0  0
    1.3670   -0.7540   -1.1710 C   0  0  1  0  0  0  0  0  0  0  0  0
    0.9630   -2.1870   -1.1380 C   0  0  0  0  0  0  0  0  0  0  0  0
   -0.4670   -2.5240   -1.0670 C   0  0  0  0  0  0  0  0  0  0  0  0
   -1.2520   -1.5230   -1.5550 O   0  0  0  0  0  0  0  0  0  0  0  0
   -1.1170   -0.3300   -0.8330 C   0  0  2  0  0  0  0  0  0  0  0  0
   -1.3110   -0.6260    0.6110 C   0  0  0  0  0  0  0  0  0  0  0  0
   -2.5410   -1.4440    0.8780 C   0  0  0  0  0  0  0  0  0  0  0  0
   -3.6130   -0.5610    1.4780 C   0  0  0  0  0  0  0  0  0  0  0  0
   -4.3860    0.1930    0.3870 C   0  0  0  0  0  0  0  0  0  0  0  0
   -3.8770    1.5650    0.1650 C   0  0  0  0  0  0  0  0  0  0  0  0
   -2.5800    1.7040   -0.5280 C   0  0  0  0  0  0  0  0  0  0  0  0
   -2.1630    0.6040   -1.4110 C   0  0  0  0  0  0  0  0  0  0  0  0
    0.2770    0.2430   -1.0030 C   0  0  0  0  0  0  0  0  0  0  0  0
  1  2  1  0
  2  3  1  0
  2  6  1  0
  3  4  2  0
  4  5  1  0
  5  6  2  0
  6  7  1  0
  7  8  1  6
  7  9  1  0
  9 10  1  1
  9 21  1  0
 10 11  1  0
 11 12  1  0
 12 13  1  0
 13 14  1  1
 13 20  1  0
 13 21  1  0
 14 15  1  0
 15 16  1  0
 16 17  1  0
 17 18  1  0
 18 19  1  0
 19 20  1  0
M  CHG  1   4   1
M  END
