
     RDKit          3D

 21 23  0  0  0  0  0  0  0  0999 V2000
    6.4360    0.6860   -0.3590 C   0  0  0  0  0  0  0  0  0  0  0  0
    5.0780    0.2320    0.0240 C   0  0  0  0  0  0  0  0  0  0  0  0
    4.0430    0.8350   -0.5620 C   0  0  0  0  0  0  0  0  0  0  0  0
    2.6000    0.5630   -0.3480 C   0  0  0  0  0  0  0  0  0  0  0  0
    1.8740    1.6080   -0.7690 N   0  0  0  0  0  0  0  0  0  0  0  0
    0.5490    1.5590   -0.6310 C   0  0  0  0  0  0  0  0  0  0  0  0
   -0.3090    2.6790   -1.0790 C   0  0  0  0  0  0  0  0  0  0  0  0
   -0.1010    0.4460   -0.0570 C   0  0  0  0  0  0  0  0  0  0  0  0
   -1.5470    0.4990    0.0290 C   0  0  0  0  0  0  0  0  0  0  0  0
   -2.2700   -0.6060    0.5290 N   0  0  0  0  0  0  0  0  0  0  0  0
   -3.6810   -0.2360    0.5680 C   0  0  1  0  0  0  0  0  0  0  0  0
   -4.2520    0.0670   -0.8020 C   0  0  0  0  0  0  0  0  0  0  0  0
   -5.7410   -0.1080   -0.4530 C   0  0  0  0  0  0  0  0  0  0  0  0
   -5.8050   -1.1760    0.4240 O   0  0  0  0  0  0  0  0  0  0  0  0
   -4.5450   -1.3990    0.9590 C   0  0  0  0  0  0  0  0  0  0  0  0
    0.6530   -0.6150    0.3720 C   0  0  0  0  0  0  0  0  0  0  0  0
    0.1300   -1.8010    1.0710 C   0  0  0  0  0  0  0  0  0  0  0  0
    2.0260   -0.5510    0.2180 C   0  0  0  0  0  0  0  0  0  0  0  0
    2.7530   -1.7480    0.6420 C   0  0  0  0  0  0  0  0  0  0  0  0
    4.0420   -1.8590    0.9750 C   0  0  0  0  0  0  0  0  0  0  0  0
    4.9560   -0.7930    0.9700 O   0  0  0  0  0  0  0  0  0  0  0  0
  1  2  1  0
  2  3  2  0
  2 21  1  0
  3  4  1  0
  4  5  2  0
  4 18  1  0
  5  6  1  0
  6  7  1  0
  6  8  2  0
  8  9  1  0
  8 16  1  0
  9 10  1  0
 11 10  1  6
 11 12  1  0
 11 15  1  0
 12 13  1  0
 13 14  1  0
 14 15  1  0
 16 17  1  0
 16 18  2  0
 18 19  1  0
 19 20  2  0
 20 21  1  0
M  CHG  1   5   1
M  END
