
     RDKit          3D

 19 21  0  0  0  0  0  0  0  0999 V2000
    3.4970   -1.9730   -1.1650 N   0  0  0  0  0  0  0  0  0  0  0  0
    2.1530   -1.6310   -0.8070 C   0  0  1  0  0  0  0  0  0  0  0  0
    1.8850   -1.7930    0.6740 C   0  0  0  0  0  0  0  0  0  0  0  0
    2.1850   -0.3970    1.1690 C   0  0  0  0  0  0  0  0  0  0  0  0
    1.4950    0.4060    0.1700 N   0  0  0  0  0  0  0  0  0  0  0  0
    0.6490    1.4760    0.4980 C   0  0  0  0  0  0  0  0  0  0  0  0
    1.0560    2.3380    1.3960 N   0  0  0  0  0  0  0  0  0  0  0  0
    0.4220    3.4840    1.9060 N   0  0  0  0  0  0  0  0  0  0  0  0
   -0.5440    4.2550    1.1880 C   0  0  0  0  0  0  0  0  0  0  0  0
   -1.3670    3.8660    0.2260 C   0  0  0  0  0  0  0  0  0  0  0  0
   -1.4810    2.5100   -0.3420 C   0  0  0  0  0  0  0  0  0  0  0  0
   -0.6180    1.5020   -0.2200 C   0  0  0  0  0  0  0  0  0  0  0  0
   -0.9120    0.2940   -0.8370 O   0  0  0  0  0  0  0  0  0  0  0  0
   -2.1500   -0.2980   -0.5560 C   0  0  1  0  0  0  0  0  0  0  0  0
   -2.3700   -1.5950   -1.2690 C   0  0  0  0  0  0  0  0  0  0  0  0
   -3.1610   -2.3940   -0.2570 C   0  0  0  0  0  0  0  0  0  0  0  0
   -3.4190   -1.5570    0.8130 O   0  0  0  0  0  0  0  0  0  0  0  0
   -2.2840   -0.7170    0.9000 C   0  0  0  0  0  0  0  0  0  0  0  0
    1.8930   -0.1570   -1.0850 C   0  0  0  0  0  0  0  0  0  0  0  0
  2  1  1  1
  2  3  1  0
  2 19  1  0
  3  4  1  0
  4  5  1  0
  5  6  1  0
  5 19  1  0
  6  7  2  0
  6 12  1  0
  7  8  1  0
  8  9  1  0
  9 10  2  0
 10 11  1  0
 11 12  2  0
 12 13  1  0
 14 13  1  1
 14 15  1  0
 14 18  1  0
 15 16  1  0
 16 17  1  0
 17 18  1  0
M  CHG  1   1   1
M  END
