
     RDKit          3D

 12 11  0  0  0  0  0  0  0  0999 V2000
    3.1430   -1.7880   -0.2940 O   0  0  0  0  0  0  0  0  0  0  0  0
    3.6810   -0.7290    0.4360 C   0  0  0  0  0  0  0  0  0  0  0  0
    2.6840   -0.0080    1.0970 O   0  0  0  0  0  0  0  0  0  0  0  0
    1.7810    0.5110    0.1440 C   0  0  0  0  0  0  0  0  0  0  0  0
    0.8210    1.2120    0.8550 O   0  0  0  0  0  0  0  0  0  0  0  0
   -0.1440    1.7860    0.0590 C   0  0  0  0  0  0  0  0  0  0  0  0
   -0.9120    0.7840   -0.7610 C   0  0  2  0  0  0  0  0  0  0  0  0
   -1.8550    1.4710   -1.5230 O   0  0  0  0  0  0  0  0  0  0  0  0
   -1.6370   -0.2130    0.1510 C   0  0  1  0  0  0  0  0  0  0  0  0
   -2.5120    0.4580    0.9980 O   0  0  0  0  0  0  0  0  0  0  0  0
   -2.4360   -1.1660   -0.7120 C   0  0  0  0  0  0  0  0  0  0  0  0
   -3.0970   -2.0710    0.1170 O   0  0  0  0  0  0  0  0  0  0  0  0
  1  2  1  0
  2  3  1  0
  3  4  1  0
  4  5  1  0
  5  6  1  0
  6  7  1  0
  7  8  1  1
  7  9  1  0
  9 10  1  1
  9 11  1  0
 11 12  1  0
M  END
