
     RDKit          3D

 12 11  0  0  0  0  0  0  0  0999 V2000
   -3.9840   -0.1070    0.6690 O   0  0  0  0  0  0  0  0  0  0  0  0
   -3.5740   -0.2200   -0.5020 C   0  0  0  0  0  0  0  0  0  0  0  0
   -4.4680    0.1780   -1.5170 O   0  0  0  0  0  0  0  0  0  0  0  0
   -2.3210   -0.7040   -0.7950 O   0  0  0  0  0  0  0  0  0  0  0  0
   -1.4390   -1.0920    0.2210 C   0  0  0  0  0  0  0  0  0  0  0  0
   -1.0640    0.0440    1.1290 C   0  0  0  0  0  0  0  0  0  0  0  0
   -0.4510    1.0790    0.4900 O   0  0  0  0  0  0  0  0  0  0  0  0
    0.7150    0.8490   -0.1600 C   0  0  0  0  0  0  0  0  0  0  0  0
    1.8690    0.3640    0.6420 C   0  0  1  0  0  0  0  0  0  0  0  0
    1.6550   -0.8520    1.2830 O   0  0  0  0  0  0  0  0  0  0  0  0
    3.1200    0.1650   -0.2160 C   0  0  0  0  0  0  0  0  0  0  0  0
    3.4500    1.3030   -0.9130 O   0  0  0  0  0  0  0  0  0  0  0  0
  1  2  2  0
  2  3  1  0
  2  4  1  0
  4  5  1  0
  5  6  1  0
  6  7  1  0
  7  8  1  0
  8  9  1  0
  9 10  1  6
  9 11  1  0
 11 12  1  0
M  END
