
     RDKit          3D

 13 12  0  0  0  0  0  0  0  0999 V2000
   -0.6840   -2.2060    0.3880 O   0  0  0  0  0  0  0  0  0  0  0  0
   -1.4240   -1.3860   -0.1990 C   0  0  0  0  0  0  0  0  0  0  0  0
   -2.5870   -1.8590   -0.8270 O   0  0  0  0  0  0  0  0  0  0  0  0
   -1.1920    0.0700   -0.2990 C   0  0  0  0  0  0  0  0  0  0  0  0
    0.1060    0.5390    0.2800 C   0  0  1  0  0  0  0  0  0  0  0  0
    0.1530    0.1790    1.6150 O   0  0  0  0  0  0  0  0  0  0  0  0
    1.3220    0.2580   -0.5210 C   0  0  0  0  0  0  0  0  0  0  0  0
    1.6320   -1.1330   -0.8210 C   0  0  0  0  0  0  0  0  0  0  0  0
    1.2240   -1.6400   -1.8970 O   0  0  0  0  0  0  0  0  0  0  0  0
    2.3660   -1.9420    0.0280 O   0  0  0  0  0  0  0  0  0  0  0  0
   -0.0190    2.0660    0.2820 C   0  0  0  0  0  0  0  0  0  0  0  0
   -0.0810    2.6100   -0.8430 O   0  0  0  0  0  0  0  0  0  0  0  0
   -0.0600    2.7750    1.4360 O   0  0  0  0  0  0  0  0  0  0  0  0
  1  2  2  0
  2  3  1  0
  2  4  1  0
  4  5  1  0
  5  6  1  1
  5  7  1  0
  5 11  1  0
  7  8  1  0
  8  9  2  0
  8 10  1  0
 11 12  2  0
 11 13  1  0
M  END
