
     RDKit          3D

 44 47  0  0  0  0  0  0  0  0999 V2000
    9.4170   -2.5690   -2.6780 C   0  0  0  0  0  0  0  0  0  0  0  0
    8.0470   -2.2250   -2.5440 O   0  0  0  0  0  0  0  0  0  0  0  0
    7.5610   -0.9610   -2.8240 C   0  0  0  0  0  0  0  0  0  0  0  0
    8.3450   -0.0800   -3.2140 O   0  0  0  0  0  0  0  0  0  0  0  0
    6.0840   -0.7250   -2.6340 C   0  0  0  0  0  0  0  0  0  0  0  0
    5.7330    0.6960   -2.9450 C   0  0  0  0  0  0  0  0  0  0  0  0
    4.3090    1.0770   -2.8070 C   0  0  2  0  0  0  0  0  0  0  0  0
    4.1290    2.5510   -3.1970 C   0  0  0  0  0  0  0  0  0  0  0  0
    3.7650    0.8880   -1.4220 C   0  0  0  0  0  0  0  0  0  0  0  0
    4.4610    0.3230   -0.5630 O   0  0  0  0  0  0  0  0  0  0  0  0
    2.4710    1.3420   -1.0710 N   0  0  0  0  0  0  0  0  0  0  0  0
    1.7770    1.2230    0.1580 C   0  0  0  0  0  0  0  0  0  0  0  0
    1.2520   -0.1080    0.4870 C   0  0  1  0  0  0  0  0  0  0  0  0
    2.3170   -1.1730    0.5320 C   0  0  0  0  0  0  0  0  0  0  0  0
    1.8100   -2.5070    1.0990 C   0  0  0  0  0  0  0  0  0  0  0  0
    1.1510   -2.4000    2.4220 C   0  0  0  0  0  0  0  0  0  0  0  0
    0.0470   -1.3510    2.3050 C   0  0  1  0  0  0  0  0  0  0  0  0
    0.7860   -0.0820    1.9440 C   0  0  0  0  0  0  0  0  0  0  0  0
   -0.9570   -1.7000    1.4420 O   0  0  0  0  0  0  0  0  0  0  0  0
   -1.6130   -2.8110    1.0910 C   0  0  0  0  0  0  0  0  0  0  0  0
   -1.4830   -3.3770   -0.0630 O   0  0  0  0  0  0  0  0  0  0  0  0
   -2.4910   -3.4160    2.0000 O   0  0  0  0  0  0  0  0  0  0  0  0
   -3.6340   -2.7810    2.5440 C   0  0  2  0  0  0  0  0  0  0  0  0
   -4.8430   -3.1750    1.7230 C   0  0  0  0  0  0  0  0  0  0  0  0
   -6.1030   -2.5360    2.2570 C   0  0  2  0  0  0  0  0  0  0  0  0
   -6.4290   -2.9150    3.6600 C   0  0  0  0  0  0  0  0  0  0  0  0
   -7.2330   -2.8640    1.3120 C   0  0  0  0  0  0  0  0  0  0  0  0
   -3.5520   -1.3680    2.5560 C   0  0  0  0  0  0  0  0  0  0  0  0
   -3.4880   -0.2670    2.5690 C   0  0  0  0  0  0  0  0  0  0  0  0
   -3.3900    1.1650    2.5870 C   0  0  0  0  0  0  0  0  0  0  0  0
   -2.1020    1.4740    2.1020 O   0  0  0  0  0  0  0  0  0  0  0  0
   -1.6460    2.4640    1.3150 C   0  0  0  0  0  0  0  0  0  0  0  0
   -0.9840    3.4290    1.8480 O   0  0  0  0  0  0  0  0  0  0  0  0
   -1.8490    2.5450   -0.1990 C   0  0  0  0  0  0  0  0  0  0  0  0
   -1.5610    1.4660   -0.9370 C   0  0  0  0  0  0  0  0  0  0  0  0
   -2.0650    2.1350   -2.6430 S   0  0  0  0  0  0  0  0  0  0  0  0
   -2.5510    3.6740   -2.1080 C   0  0  0  0  0  0  0  0  0  0  0  0
   -2.3550    3.6780   -0.7970 C   0  0  0  0  0  0  0  0  0  0  0  0
   -2.7700    5.1110   -0.3970 C   0  0  0  0  0  0  0  0  0  0  0  0
   -3.8960    5.3600   -1.3720 C   0  0  0  0  0  0  0  0  0  0  0  0
   -3.1300    4.9840   -2.6530 C   0  0  0  0  0  0  0  0  0  0  0  0
   -1.0590    0.1930   -0.7330 N   0  0  0  0  0  0  0  0  0  0  0  0
    0.1670   -0.4140   -0.4770 C   0  0  0  0  0  0  0  0  0  0  0  0
    0.5340   -1.4840   -1.1720 O   0  0  0  0  0  0  0  0  0  0  0  0
  1  2  1  0
  2  3  1  0
  3  4  2  0
  3  5  1  0
  5  6  1  0
  6  7  1  0
  7  8  1  1
  7  9  1  0
  9 10  2  0
  9 11  1  0
 11 12  1  0
 13 12  1  6
 13 14  1  0
 13 18  1  0
 13 43  1  0
 14 15  1  0
 15 16  1  0
 17 16  1  6
 17 18  1  0
 17 19  1  0
 19 20  1  0
 20 21  2  0
 20 22  1  0
 22 23  1  0
 23 24  1  6
 23 28  1  0
 24 25  1  0
 25 26  1  1
 25 27  1  0
 28 29  3  0
 29 30  1  0
 30 31  1  0
 31 32  1  0
 32 33  2  0
 32 34  1  0
 34 35  2  0
 34 38  1  0
 35 36  1  0
 35 42  1  0
 36 37  1  0
 37 38  2  0
 37 41  1  0
 38 39  1  0
 39 40  1  0
 40 41  1  0
 42 43  1  0
 43 44  2  0
M  END
