
     RDKit          3D

 44 48  0  0  0  0  0  0  0  0999 V2000
    8.0970    2.1920    2.1890 C   0  0  0  0  0  0  0  0  0  0  0  0
    8.1180    1.8900    0.6880 C   0  0  2  0  0  0  0  0  0  0  0  0
    7.9540    3.1590   -0.0700 C   0  0  0  0  0  0  0  0  0  0  0  0
    7.2780    3.0090   -1.4120 C   0  0  0  0  0  0  0  0  0  0  0  0
    5.9210    2.4390   -1.1300 C   0  0  0  0  0  0  0  0  0  0  0  0
    4.6370    2.6760   -1.5380 C   0  0  0  0  0  0  0  0  0  0  0  0
    3.8600    1.7580   -0.8650 C   0  0  0  0  0  0  0  0  0  0  0  0
    2.4120    1.6410   -0.9920 C   0  0  0  0  0  0  0  0  0  0  0  0
    1.7670    2.4300   -1.7600 O   0  0  0  0  0  0  0  0  0  0  0  0
    1.6880    0.6650   -0.2780 N   0  0  0  0  0  0  0  0  0  0  0  0
    2.2100   -0.3330    0.5990 C   0  0  0  0  0  0  0  0  0  0  0  0
    1.2660   -1.5230    0.3270 C   0  0  0  0  0  0  0  0  0  0  0  0
   -0.0080   -0.8250    0.0340 C   0  0  0  0  0  0  0  0  0  0  0  0
   -1.3020   -1.2940    0.0900 C   0  0  0  0  0  0  0  0  0  0  0  0
   -1.7010   -2.6540    0.3790 C   0  0  0  0  0  0  0  0  0  0  0  0
   -2.9000   -2.8810    0.7670 O   0  0  0  0  0  0  0  0  0  0  0  0
   -0.8790   -3.8000    0.2730 N   0  0  0  0  0  0  0  0  0  0  0  0
   -1.3930   -5.1230    0.6030 C   0  0  0  0  0  0  0  0  0  0  0  0
   -0.3260   -6.1830    0.3840 C   0  0  2  0  0  0  0  0  0  0  0  0
    0.1320   -6.2270   -1.0420 C   0  0  0  0  0  0  0  0  0  0  0  0
   -0.9270   -6.6650   -2.0150 C   0  0  0  0  0  0  0  0  0  0  0  0
   -1.8160   -8.1300   -1.3470 S   0  0  0  0  0  0  0  0  0  0  0  0
   -0.7640   -8.6520    0.0660 C   0  0  0  0  0  0  0  0  0  0  0  0
   -0.7490   -7.4460    1.0060 C   0  0  2  0  0  0  0  0  0  0  0  0
   -1.9430   -7.3920    1.7140 O   0  0  0  0  0  0  0  0  0  0  0  0
   -2.3350   -0.4030   -0.2080 C   0  0  0  0  0  0  0  0  0  0  0  0
   -2.1050    0.9090   -0.5510 C   0  0  0  0  0  0  0  0  0  0  0  0
   -3.1930    1.8250   -0.8610 C   0  0  0  0  0  0  0  0  0  0  0  0
   -3.0050    3.0220   -1.1880 O   0  0  0  0  0  0  0  0  0  0  0  0
   -4.4800    1.3630   -0.7950 O   0  0  0  0  0  0  0  0  0  0  0  0
   -5.6300    2.0910   -1.0600 C   0  0  0  0  0  0  0  0  0  0  0  0
   -5.8130    3.2750   -0.2120 C   0  0  0  0  0  0  0  0  0  0  0  0
   -4.9160    3.5210    0.6450 O   0  0  0  0  0  0  0  0  0  0  0  0
   -6.8760    4.1360   -0.2760 O   0  0  0  0  0  0  0  0  0  0  0  0
   -7.0900    5.2700    0.5020 C   0  0  1  0  0  0  0  0  0  0  0  0
   -5.9920    6.3040    0.3490 C   0  0  0  0  0  0  0  0  0  0  0  0
   -8.3590    5.9430   -0.0330 C   0  0  0  0  0  0  0  0  0  0  0  0
   -7.3210    4.9900    1.9610 C   0  0  0  0  0  0  0  0  0  0  0  0
   -0.7930    1.3150   -0.5890 C   0  0  0  0  0  0  0  0  0  0  0  0
    0.2800    0.4980   -0.3090 C   0  0  0  0  0  0  0  0  0  0  0  0
    4.6270    1.0470   -0.1280 O   0  0  0  0  0  0  0  0  0  0  0  0
    5.8760    1.3970   -0.2330 C   0  0  0  0  0  0  0  0  0  0  0  0
    7.0800    0.8470    0.4340 C   0  0  1  0  0  0  0  0  0  0  0  0
    7.5380   -0.2010   -0.3650 O   0  0  0  0  0  0  0  0  0  0  0  0
  2  1  1  1
  2  3  1  0
  2 43  1  0
  3  4  1  0
  4  5  1  0
  5  6  1  0
  5 42  2  0
  6  7  2  0
  7  8  1  0
  7 41  1  0
  8  9  2  0
  8 10  1  0
 10 11  1  0
 10 40  1  0
 11 12  1  0
 12 13  1  0
 13 14  2  0
 13 40  1  0
 14 15  1  0
 14 26  1  0
 15 16  2  0
 15 17  1  0
 17 18  1  0
 19 18  1  6
 19 20  1  0
 19 24  1  0
 20 21  1  0
 21 22  1  0
 22 23  1  0
 23 24  1  0
 24 25  1  6
 26 27  2  0
 27 28  1  0
 27 39  1  0
 28 29  2  0
 28 30  1  0
 30 31  1  0
 31 32  1  0
 32 33  2  0
 32 34  1  0
 34 35  1  0
 35 36  1  1
 35 37  1  0
 35 38  1  0
 39 40  2  0
 41 42  1  0
 42 43  1  0
 43 44  1  6
M  END
