
     RDKit          3D

 44 49  0  0  0  0  0  0  0  0999 V2000
    0.6240   -0.4350    0.3480 C   0  0  0  0  0  0  0  0  0  0  0  0
    1.1560    0.5990   -0.5860 C   0  0  0  0  0  0  0  0  0  0  0  0
    2.4840    0.9750   -0.3870 C   0  0  0  0  0  0  0  0  0  0  0  0
    3.3020    0.4490    0.6600 C   0  0  0  0  0  0  0  0  0  0  0  0
    3.9990   -0.0070    1.5640 C   0  0  0  0  0  0  0  0  0  0  0  0
    4.8350   -0.5500    2.6100 C   0  0  0  0  0  0  0  0  0  0  0  0
    4.3900   -0.9860    3.8470 C   0  0  0  0  0  0  0  0  0  0  0  0
    5.4590   -1.4110    4.5560 N   0  0  0  0  0  0  0  0  0  0  0  0
    6.5660   -1.2500    3.7880 C   0  0  0  0  0  0  0  0  0  0  0  0
    7.8910   -1.5250    4.0390 C   0  0  0  0  0  0  0  0  0  0  0  0
    8.7820   -1.2560    3.0710 N   0  0  0  0  0  0  0  0  0  0  0  0
    8.4090   -0.7330    1.8860 C   0  0  0  0  0  0  0  0  0  0  0  0
    9.4010   -0.4560    0.8440 C   0  0  0  0  0  0  0  0  0  0  0  0
    9.0720    0.0730   -0.3750 C   0  0  0  0  0  0  0  0  0  0  0  0
   10.0130    0.3350   -1.3740 C   0  0  0  0  0  0  0  0  0  0  0  0
   11.3390    0.0560   -1.1410 C   0  0  0  0  0  0  0  0  0  0  0  0
   12.3440    0.3070   -2.1390 N   0  0  0  0  0  0  0  0  0  0  0  0
   11.6600   -0.4760    0.0880 C   0  0  0  0  0  0  0  0  0  0  0  0
   10.7440   -0.7370    1.0760 C   0  0  0  0  0  0  0  0  0  0  0  0
    7.0940   -0.4720    1.6660 C   0  0  0  0  0  0  0  0  0  0  0  0
    6.1590   -0.7250    2.6080 N   0  0  0  0  0  0  0  0  0  0  0  0
    3.0140    1.8950   -1.2770 C   0  0  0  0  0  0  0  0  0  0  0  0
    2.2890    2.4230   -2.3090 C   0  0  0  0  0  0  0  0  0  0  0  0
    0.9770    2.0470   -2.4970 C   0  0  0  0  0  0  0  0  0  0  0  0
    0.3990    1.1120   -1.6100 C   0  0  0  0  0  0  0  0  0  0  0  0
   -0.9950    0.8090   -1.8290 C   0  0  0  0  0  0  0  0  0  0  0  0
   -1.3650    0.8020   -3.0650 O   0  0  0  0  0  0  0  0  0  0  0  0
   -1.8960    0.5490   -0.7970 N   0  0  0  0  0  0  0  0  0  0  0  0
   -3.2720    0.2320   -1.0320 C   0  0  0  0  0  0  0  0  0  0  0  0
   -3.6460   -0.3910   -2.1940 C   0  0  0  0  0  0  0  0  0  0  0  0
   -5.0100   -0.6450   -2.4150 C   0  0  0  0  0  0  0  0  0  0  0  0
   -5.3880   -1.3290   -3.6720 C   0  0  1  0  0  0  0  0  0  0  0  0
   -6.4710   -2.3450   -3.3760 C   0  0  0  0  0  0  0  0  0  0  0  0
   -5.9170   -0.2370   -4.6180 C   0  0  0  0  0  0  0  0  0  0  0  0
   -5.9210   -0.2630   -1.4650 C   0  0  0  0  0  0  0  0  0  0  0  0
   -5.5250    0.3570   -0.3120 C   0  0  0  0  0  0  0  0  0  0  0  0
   -6.4670    0.7440    0.6530 N   0  0  0  0  0  0  0  0  0  0  0  0
   -6.0500    1.2500    1.9840 C   0  0  0  0  0  0  0  0  0  0  0  0
   -7.1960    0.9110    2.9400 C   0  0  0  0  0  0  0  0  0  0  0  0
   -7.7020   -0.4050    2.6370 N   0  0  0  0  0  0  0  0  0  0  0  0
   -8.4730   -0.9440    3.7180 C   0  0  0  0  0  0  0  0  0  0  0  0
   -8.5200   -0.3150    1.4270 C   0  0  0  0  0  0  0  0  0  0  0  0
   -7.9060    0.6940    0.4740 C   0  0  0  0  0  0  0  0  0  0  0  0
   -4.1940    0.6160   -0.0720 C   0  0  0  0  0  0  0  0  0  0  0  0
  1  2  1  0
  2  3  2  0
  2 25  1  0
  3  4  1  0
  3 22  1  0
  4  5  3  0
  5  6  1  0
  6  7  2  0
  6 21  1  0
  7  8  1  0
  8  9  2  0
  9 10  1  0
  9 21  1  0
 10 11  2  0
 11 12  1  0
 12 13  1  0
 12 20  2  0
 13 14  2  0
 13 19  1  0
 14 15  1  0
 15 16  2  0
 16 17  1  0
 16 18  1  0
 18 19  2  0
 20 21  1  0
 22 23  2  0
 23 24  1  0
 24 25  2  0
 25 26  1  0
 26 27  2  0
 26 28  1  0
 28 29  1  0
 29 30  2  0
 29 44  1  0
 30 31  1  0
 31 32  1  0
 31 35  2  0
 32 33  1  1
 32 34  1  0
 35 36  1  0
 36 37  1  0
 36 44  2  0
 37 38  1  0
 37 43  1  0
 38 39  1  0
 39 40  1  0
 40 41  1  0
 40 42  1  0
 42 43  1  0
M  END
