
     RDKit          3D

 44 48  0  0  0  0  0  0  0  0999 V2000
   -8.2740   -0.6040   -5.1890 C   0  0  0  0  0  0  0  0  0  0  0  0
   -6.8150   -0.4070   -5.4460 C   0  0  0  0  0  0  0  0  0  0  0  0
   -6.1770    0.6050   -4.5620 C   0  0  0  0  0  0  0  0  0  0  0  0
   -6.1640    0.3610   -3.2430 O   0  0  0  0  0  0  0  0  0  0  0  0
   -7.0450    0.2730   -2.2250 C   0  0  0  0  0  0  0  0  0  0  0  0
   -8.2540    0.4750   -2.4860 O   0  0  0  0  0  0  0  0  0  0  0  0
   -6.6370   -0.0500   -0.8370 C   0  0  0  0  0  0  0  0  0  0  0  0
   -5.4490   -0.2900   -0.3430 C   0  0  0  0  0  0  0  0  0  0  0  0
   -4.1870   -0.2830   -1.1230 C   0  0  0  0  0  0  0  0  0  0  0  0
   -3.0030   -0.4530   -0.5510 C   0  0  0  0  0  0  0  0  0  0  0  0
   -1.8430   -0.4290   -1.2960 O   0  0  0  0  0  0  0  0  0  0  0  0
   -0.6340   -0.9880   -0.9320 C   0  0  0  0  0  0  0  0  0  0  0  0
   -0.3750   -2.2840   -0.9240 C   0  0  0  0  0  0  0  0  0  0  0  0
    1.0100   -2.4980   -0.4820 C   0  0  0  0  0  0  0  0  0  0  0  0
    1.6400   -3.5760   -0.3420 O   0  0  0  0  0  0  0  0  0  0  0  0
    1.5270   -1.1490   -0.2320 C   0  0  0  0  0  0  0  0  0  0  0  0
    2.7740   -0.6930    0.2050 C   0  0  0  0  0  0  0  0  0  0  0  0
    2.9780    0.6550    0.3530 C   0  0  0  0  0  0  0  0  0  0  0  0
    4.2660    1.1620    0.7930 C   0  0  0  0  0  0  0  0  0  0  0  0
    4.4000    2.3250    1.2740 O   0  0  0  0  0  0  0  0  0  0  0  0
    5.4070    0.3440    0.6830 N   0  0  0  0  0  0  0  0  0  0  0  0
    6.6590    0.8560    1.1100 C   0  0  0  0  0  0  0  0  0  0  0  0
    6.7240    2.0270    1.5970 O   0  0  0  0  0  0  0  0  0  0  0  0
    7.8150    0.0500    0.9850 N   0  0  0  0  0  0  0  0  0  0  0  0
    7.8330   -1.2960    0.4390 C   0  0  0  0  0  0  0  0  0  0  0  0
    9.2670   -1.4450   -0.0470 C   0  0  1  0  0  0  0  0  0  0  0  0
    9.3490   -0.8870   -1.4520 C   0  0  0  0  0  0  0  0  0  0  0  0
   10.0400   -0.6500    0.9540 C   0  0  0  0  0  0  0  0  0  0  0  0
    9.1470    0.4530    1.3830 C   0  0  2  0  0  0  0  0  0  0  0  0
    9.1600    0.6540    2.9010 C   0  0  0  0  0  0  0  0  0  0  0  0
    1.9970    1.5940    0.0890 C   0  0  0  0  0  0  0  0  0  0  0  0
    0.7660    1.1450   -0.3430 C   0  0  0  0  0  0  0  0  0  0  0  0
    0.5450   -0.2210   -0.4980 C   0  0  0  0  0  0  0  0  0  0  0  0
   -2.9570   -0.6780    0.8810 C   0  0  0  0  0  0  0  0  0  0  0  0
   -4.0690   -0.7350    1.6190 C   0  0  0  0  0  0  0  0  0  0  0  0
   -5.3970   -0.5950    1.0840 C   0  0  1  0  0  0  0  0  0  0  0  0
   -6.4350    0.1380    1.8330 C   0  0  1  0  0  0  0  0  0  0  0  0
   -6.2890    1.5810    2.0830 C   0  0  1  0  0  0  0  0  0  0  0  0
   -7.4770    1.9520    2.8100 O   0  0  0  0  0  0  0  0  0  0  0  0
   -5.1230    2.0170    2.8520 C   0  0  0  0  0  0  0  0  0  0  0  0
   -3.9630    1.9000    2.4210 O   0  0  0  0  0  0  0  0  0  0  0  0
   -5.2780    2.5890    4.1210 O   0  0  0  0  0  0  0  0  0  0  0  0
   -4.1870    3.0270    4.9090 C   0  0  0  0  0  0  0  0  0  0  0  0
   -7.7880   -0.1140    0.5640 S   0  0  0  0  0  0  0  0  0  0  0  0
  1  2  1  0
  2  3  1  0
  3  4  1  0
  4  5  1  0
  5  6  2  0
  5  7  1  0
  7  8  2  0
  7 44  1  0
  8  9  1  0
  8 36  1  0
  9 10  2  0
 10 11  1  0
 10 34  1  0
 11 12  1  0
 12 13  2  0
 12 33  1  0
 13 14  1  0
 14 15  2  0
 14 16  1  0
 16 17  2  0
 16 33  1  0
 17 18  1  0
 18 19  1  0
 18 31  2  0
 19 20  2  0
 19 21  1  0
 21 22  1  0
 22 23  2  0
 22 24  1  0
 24 25  1  0
 24 29  1  0
 25 26  1  0
 26 27  1  6
 26 28  1  0
 28 29  1  0
 29 30  1  1
 31 32  1  0
 32 33  2  0
 34 35  2  0
 36 35  1  1
 36 37  1  0
 37 38  1  0
 37 44  1  6
 38 39  1  1
 38 40  1  0
 40 41  2  0
 40 42  1  0
 42 43  1  0
M  END
