
     RDKit          3D

 17 19  0  0  0  0  0  0  0  0999 V2000
   -1.3320    2.6510   -1.3260 C   0  0  0  0  0  0  0  0  0  0  0  0
   -0.9140    1.3640   -0.8090 N   0  0  0  0  0  0  0  0  0  0  0  0
    0.4230    1.0620   -0.6390 N   0  0  0  0  0  0  0  0  0  0  0  0
    0.8550   -0.0640   -0.1850 C   0  0  0  0  0  0  0  0  0  0  0  0
    2.3070   -0.2850   -0.0420 C   0  0  0  0  0  0  0  0  0  0  0  0
    2.9210   -1.3670    0.4040 C   0  0  0  0  0  0  0  0  0  0  0  0
    4.3940   -1.1840    0.3900 C   0  0  0  0  0  0  0  0  0  0  0  0
    4.5370    0.1880   -0.1370 C   0  0  0  0  0  0  0  0  0  0  0  0
    5.7900    0.8250   -0.3360 N   0  0  0  0  0  0  0  0  0  0  0  0
    3.3260    0.6940   -0.3820 C   0  0  0  0  0  0  0  0  0  0  0  0
   -0.0750   -1.1250    0.1920 C   0  0  0  0  0  0  0  0  0  0  0  0
   -1.4790   -0.7770    0.0010 C   0  0  0  0  0  0  0  0  0  0  0  0
   -1.8800    0.3880   -0.4680 C   0  0  0  0  0  0  0  0  0  0  0  0
   -3.3410    0.6190   -0.6150 C   0  0  0  0  0  0  0  0  0  0  0  0
   -3.9550    0.3180    0.7560 C   0  0  0  0  0  0  0  0  0  0  0  0
   -3.6210   -1.0680    1.1890 C   0  0  0  0  0  0  0  0  0  0  0  0
   -2.5910   -1.7500    0.3360 C   0  0  0  0  0  0  0  0  0  0  0  0
  1  2  1  0
  2  3  1  0
  2 13  1  0
  3  4  2  0
  4  5  1  0
  4 11  1  0
  5  6  2  0
  5 10  1  0
  6  7  1  0
  7  8  1  0
  8  9  1  0
  8 10  2  0
 11 12  1  0
 12 13  2  0
 12 17  1  0
 13 14  1  0
 14 15  1  0
 15 16  1  0
 16 17  1  0
M  END
