
     RDKit          3D

 17 19  0  0  0  0  0  0  0  0999 V2000
    4.7750   -1.3270   -0.0510 C   0  0  0  0  0  0  0  0  0  0  0  0
    3.7580   -0.3110    0.2470 N   0  0  0  0  0  0  0  0  0  0  0  0
    3.9300    0.9810    0.5020 C   0  0  0  0  0  0  0  0  0  0  0  0
    2.6860    1.5300    0.7230 C   0  0  0  0  0  0  0  0  0  0  0  0
    1.7570    0.5170    0.5910 C   0  0  0  0  0  0  0  0  0  0  0  0
    0.2740    0.6410    0.7440 C   0  0  1  0  0  0  0  0  0  0  0  0
   -0.0420    2.0710    0.8380 C   0  0  0  0  0  0  0  0  0  0  0  0
   -1.0460    2.6600    0.2170 C   0  0  0  0  0  0  0  0  0  0  0  0
   -1.9320    1.8640   -0.6350 C   0  0  0  0  0  0  0  0  0  0  0  0
   -1.8130    0.4020   -0.3250 C   0  0  1  0  0  0  0  0  0  0  0  0
   -2.6180   -0.3420   -1.3690 C   0  0  0  0  0  0  0  0  0  0  0  0
   -3.4910   -1.4160   -0.7370 C   0  0  0  0  0  0  0  0  0  0  0  0
   -2.8550   -1.8090    0.5490 C   0  0  0  0  0  0  0  0  0  0  0  0
   -1.5460   -1.8260    0.8060 C   0  0  0  0  0  0  0  0  0  0  0  0
   -0.4270   -1.4550   -0.1380 C   0  0  0  0  0  0  0  0  0  0  0  0
   -0.4200   -0.0380   -0.2980 N   0  0  0  0  0  0  0  0  0  0  0  0
    2.4750   -0.5790    0.3010 N   0  0  0  0  0  0  0  0  0  0  0  0
  1  2  1  0
  2  3  1  0
  2 17  1  0
  3  4  2  0
  4  5  1  0
  6  5  1  6
  5 17  2  0
  6  7  1  0
  6 16  1  0
  7  8  2  0
  8  9  1  0
 10  9  1  6
 10 11  1  0
 10 16  1  0
 11 12  1  0
 12 13  1  0
 13 14  2  0
 14 15  1  0
 15 16  1  0
M  END
