
     RDKit          3D

 17 18  0  0  0  0  0  0  0  0999 V2000
   -2.8870   -2.9950    0.8340 C   0  0  0  0  0  0  0  0  0  0  0  0
   -1.5710   -2.3300    0.8180 C   0  0  0  0  0  0  0  0  0  0  0  0
   -1.4700   -1.1050    0.3850 C   0  0  0  0  0  0  0  0  0  0  0  0
   -2.6050   -0.2730   -0.1190 C   0  0  0  0  0  0  0  0  0  0  0  0
   -2.1520    0.1460   -1.5280 C   0  0  0  0  0  0  0  0  0  0  0  0
   -0.9860    1.0140   -1.3990 N   0  0  0  0  0  0  0  0  0  0  0  0
   -0.9710    2.1890   -2.1810 C   0  0  0  0  0  0  0  0  0  0  0  0
   -0.8060    1.8030   -3.6300 C   0  0  0  0  0  0  0  0  0  0  0  0
   -0.6950    1.5260   -4.7230 N   0  0  0  0  0  0  0  0  0  0  0  0
    0.0410    0.5850   -0.4920 C   0  0  0  0  0  0  0  0  0  0  0  0
   -0.1600   -0.4110    0.3570 C   0  0  0  0  0  0  0  0  0  0  0  0
    0.9210   -0.8490    1.2620 C   0  0  0  0  0  0  0  0  0  0  0  0
    2.0970   -0.0280    1.1900 N   0  0  0  0  0  0  0  0  0  0  0  0
    3.1650   -0.3400    2.1610 C   0  0  0  0  0  0  0  0  0  0  0  0
    2.2770    1.0230    0.2690 C   0  0  0  0  0  0  0  0  0  0  0  0
    3.5240    1.7900    0.1910 C   0  0  0  0  0  0  0  0  0  0  0  0
    1.2860    1.3320   -0.5540 C   0  0  0  0  0  0  0  0  0  0  0  0
  1  2  1  0
  2  3  2  3
  3  4  1  0
  3 11  1  0
  4  5  1  0
  5  6  1  0
  6  7  1  0
  6 10  1  0
  7  8  1  0
  8  9  3  0
 10 11  2  0
 10 17  1  0
 11 12  1  0
 12 13  1  0
 13 14  1  0
 13 15  1  0
 15 16  1  0
 15 17  2  0
M  END
