
     RDKit          3D

 17 19  0  0  0  0  0  0  0  0999 V2000
    3.7300   -0.8610   -1.5240 C   0  0  0  0  0  0  0  0  0  0  0  0
    3.0350    0.3260   -1.0440 N   0  0  0  0  0  0  0  0  0  0  0  0
    3.4130    1.5930   -1.2960 C   0  0  0  0  0  0  0  0  0  0  0  0
    2.4850    2.3920   -0.6580 C   0  0  0  0  0  0  0  0  0  0  0  0
    1.5890    1.5690   -0.0500 N   0  0  0  0  0  0  0  0  0  0  0  0
    1.9320    0.3030   -0.2900 C   0  0  0  0  0  0  0  0  0  0  0  0
    1.2300   -0.9000    0.1820 C   0  0  1  0  0  0  0  0  0  0  0  0
    1.3070   -0.9340    1.6830 C   0  0  0  0  0  0  0  0  0  0  0  0
    0.2960   -0.0490    2.3470 C   0  0  0  0  0  0  0  0  0  0  0  0
   -1.0780   -0.6300    1.9880 C   0  0  0  0  0  0  0  0  0  0  0  0
   -1.1830   -0.5550    0.5500 N   0  0  0  0  0  0  0  0  0  0  0  0
   -2.4260   -0.0800   -0.0070 C   0  0  0  0  0  0  0  0  0  0  0  0
   -3.2920    0.7450    0.5590 C   0  0  0  0  0  0  0  0  0  0  0  0
   -4.4420    0.9890   -0.3360 C   0  0  0  0  0  0  0  0  0  0  0  0
   -4.1310    0.1810   -1.5290 C   0  0  0  0  0  0  0  0  0  0  0  0
   -2.9870   -0.4090   -1.3110 C   0  0  0  0  0  0  0  0  0  0  0  0
   -0.1570   -0.9140   -0.3620 C   0  0  0  0  0  0  0  0  0  0  0  0
  1  2  1  0
  2  3  1  0
  2  6  1  0
  3  4  2  0
  4  5  1  0
  5  6  2  0
  7  6  1  1
  7  8  1  0
  7 17  1  0
  8  9  1  0
  9 10  1  0
 10 11  1  0
 11 12  1  0
 11 17  1  0
 12 13  2  0
 12 16  1  0
 13 14  1  0
 14 15  1  0
 15 16  2  0
M  END
