
     RDKit          3D

 17 18  0  0  0  0  0  0  0  0999 V2000
   -3.9200    0.8290   -1.6050 C   0  0  0  0  0  0  0  0  0  0  0  0
   -3.5090   -0.1170   -0.7880 C   0  0  0  0  0  0  0  0  0  0  0  0
   -3.8400   -1.5380   -1.0940 C   0  0  0  0  0  0  0  0  0  0  0  0
   -2.7040    0.2950    0.4080 C   0  0  0  0  0  0  0  0  0  0  0  0
   -1.4170   -0.3160    0.4300 N   0  0  0  0  0  0  0  0  0  0  0  0
   -1.1700   -1.7520    0.6880 C   0  0  0  0  0  0  0  0  0  0  0  0
    0.1440   -1.6880    1.4810 C   0  0  2  0  0  0  0  0  0  0  0  0
   -0.2200   -1.0150    2.7980 C   0  0  0  0  0  0  0  0  0  0  0  0
    0.8590   -0.6630    0.6750 C   0  0  0  0  0  0  0  0  0  0  0  0
    2.1750   -0.6500    0.4350 C   0  0  0  0  0  0  0  0  0  0  0  0
    2.8580    0.3500   -0.3460 N   0  0  0  0  0  0  0  0  0  0  0  0
    4.0880   -0.0960   -0.9540 C   0  0  0  0  0  0  0  0  0  0  0  0
    2.5080    1.6910   -0.6040 C   0  0  0  0  0  0  0  0  0  0  0  0
    3.6250    2.5910   -0.9050 C   0  0  0  0  0  0  0  0  0  0  0  0
    1.2530    2.1580   -0.5910 C   0  0  0  0  0  0  0  0  0  0  0  0
    0.0140    1.4760   -0.3310 N   0  0  0  0  0  0  0  0  0  0  0  0
   -0.1540    0.2870    0.2070 C   0  0  0  0  0  0  0  0  0  0  0  0
  1  2  2  0
  2  3  1  0
  2  4  1  0
  4  5  1  0
  5  6  1  0
  5 17  1  0
  6  7  1  0
  7  8  1  1
  7  9  1  0
  9 10  2  0
  9 17  1  0
 10 11  1  0
 11 12  1  0
 11 13  1  0
 13 14  1  0
 13 15  2  0
 15 16  1  0
 16 17  2  0
M  END
