
     RDKit          3D

 23 25  0  0  0  0  0  0  0  0999 V2000
    2.3780   -2.0230    2.1050 O   0  0  0  0  0  0  0  0  0  0  0  0
    1.8710   -1.3110    1.2090 C   0  0  0  0  0  0  0  0  0  0  0  0
    0.4490   -1.1530    1.2090 C   0  0  0  0  0  0  0  0  0  0  0  0
   -0.1890   -1.7970    2.2090 O   0  0  0  0  0  0  0  0  0  0  0  0
   -0.1540   -0.4030    0.2690 C   0  0  0  0  0  0  0  0  0  0  0  0
   -1.5750   -0.1640    0.1540 C   0  0  0  0  0  0  0  0  0  0  0  0
   -2.5910   -0.9470    0.5990 C   0  0  0  0  0  0  0  0  0  0  0  0
   -3.9430   -0.5690    0.5070 C   0  0  0  0  0  0  0  0  0  0  0  0
   -4.9120   -1.4260    0.9890 O   0  0  0  0  0  0  0  0  0  0  0  0
   -4.3220    0.6230   -0.0470 C   0  0  0  0  0  0  0  0  0  0  0  0
   -5.6590    0.9970   -0.1380 O   0  0  0  0  0  0  0  0  0  0  0  0
   -3.3110    1.4360   -0.5100 C   0  0  0  0  0  0  0  0  0  0  0  0
   -3.6750    2.6500   -1.0770 O   0  0  0  0  0  0  0  0  0  0  0  0
   -1.9990    1.0650   -0.4170 C   0  0  0  0  0  0  0  0  0  0  0  0
    0.6320    0.1830   -0.6460 O   0  0  0  0  0  0  0  0  0  0  0  0
    1.9130    0.0830   -0.7000 C   0  0  0  0  0  0  0  0  0  0  0  0
    2.6440    0.7420   -1.7050 C   0  0  0  0  0  0  0  0  0  0  0  0
    4.0080    0.6510   -1.7840 C   0  0  0  0  0  0  0  0  0  0  0  0
    4.7180    1.3180   -2.7980 O   0  0  0  0  0  0  0  0  0  0  0  0
    4.6580   -0.1030   -0.8530 C   0  0  0  0  0  0  0  0  0  0  0  0
    3.9600   -0.7800    0.1730 C   0  0  0  0  0  0  0  0  0  0  0  0
    4.6440   -1.5170    1.0750 O   0  0  0  0  0  0  0  0  0  0  0  0
    2.5770   -0.6760    0.2370 C   0  0  0  0  0  0  0  0  0  0  0  0
  1  2  2  0
  2  3  1  0
  2 23  1  0
  3  4  1  0
  3  5  2  0
  5  6  1  0
  5 15  1  0
  6  7  2  0
  6 14  1  0
  7  8  1  0
  8  9  1  0
  8 10  2  0
 10 11  1  0
 10 12  1  0
 12 13  1  0
 12 14  2  0
 15 16  1  0
 16 17  2  0
 16 23  1  0
 17 18  1  0
 18 19  1  0
 18 20  2  0
 20 21  1  0
 21 22  1  0
 21 23  2  0
M  END
