
     RDKit          3D

 24 25  0  0  0  0  0  0  0  0999 V2000
    0.7750   -3.3740   -1.7490 N   0  0  0  0  0  0  0  0  0  0  0  0
    0.5710   -2.9940   -0.3620 C   0  0  0  0  0  0  0  0  0  0  0  0
   -0.0110   -3.9170    0.3220 O   0  0  0  0  0  0  0  0  0  0  0  0
    0.9550   -1.7960    0.1540 N   0  0  0  0  0  0  0  0  0  0  0  0
    0.4340   -0.7340    0.5460 C   0  0  0  0  0  0  0  0  0  0  0  0
    1.4120    0.2430    1.0170 N   0  0  0  0  0  0  0  0  0  0  0  0
    2.5850    0.5090    0.2700 C   0  0  0  0  0  0  0  0  0  0  0  0
    2.8710   -0.0300   -0.9670 C   0  0  0  0  0  0  0  0  0  0  0  0
    4.0290    0.2720   -1.6680 C   0  0  0  0  0  0  0  0  0  0  0  0
    4.9230    1.1470   -1.0960 C   0  0  0  0  0  0  0  0  0  0  0  0
    4.6330    1.6900    0.1520 C   0  0  0  0  0  0  0  0  0  0  0  0
    3.4940    1.4000    0.8530 C   0  0  0  0  0  0  0  0  0  0  0  0
    3.1500    2.0980    2.4270 Cl  0  0  0  0  0  0  0  0  0  0  0  0
   -0.9900   -0.3810    0.5920 C   0  0  0  0  0  0  0  0  0  0  0  0
   -1.3190    0.8220    1.0700 C   0  0  0  0  0  0  0  0  0  0  0  0
   -2.7000    1.3160    1.1730 C   0  0  0  0  0  0  0  0  0  0  0  0
   -3.2920    1.9500    2.2550 C   0  0  0  0  0  0  0  0  0  0  0  0
   -4.5460    2.3480    2.1240 C   0  0  0  0  0  0  0  0  0  0  0  0
   -5.2070    2.1300    0.9560 C   0  0  0  0  0  0  0  0  0  0  0  0
   -3.9870    1.3120   -0.0190 S   0  0  0  0  0  0  0  0  0  0  0  0
   -2.0810   -1.2680    0.1990 C   0  0  0  0  0  0  0  0  0  0  0  0
   -2.1380   -1.6220   -1.1910 N   0  0  0  0  0  0  0  0  0  0  0  0
   -2.3090   -2.8000   -1.5370 O   0  0  0  0  0  0  0  0  0  0  0  0
   -2.0490   -0.6680   -2.1730 O   0  0  0  0  0  0  0  0  0  0  0  0
  1  2  1  0
  2  3  2  0
  2  4  1  0
  4  5  2  3
  5  6  1  0
  5 14  1  0
  6  7  1  0
  7  8  2  0
  7 12  1  0
  8  9  1  0
  9 10  2  0
 10 11  1  0
 11 12  2  0
 12 13  1  0
 14 15  2  3
 14 21  1  0
 15 16  1  0
 16 17  2  0
 16 20  1  0
 17 18  1  0
 18 19  2  0
 19 20  1  0
 21 22  1  0
 22 23  2  0
 22 24  1  0
M  CHG  2  22   1  24  -1
M  END
