
     RDKit          3D

 25 27  0  0  0  0  0  0  0  0999 V2000
    6.9600    2.3470    1.2640 N   0  0  0  0  0  0  0  0  0  0  0  0
    6.4010    1.0630    0.8950 C   0  0  0  0  0  0  0  0  0  0  0  0
    6.3480   -0.0500    1.1630 N   0  0  0  0  0  0  0  0  0  0  0  0
    5.6670   -0.9660    0.5130 N   0  0  0  0  0  0  0  0  0  0  0  0
    5.0220   -0.8030   -0.4180 C   0  0  0  0  0  0  0  0  0  0  0  0
    4.1560   -1.5030   -1.4130 C   0  0  0  0  0  0  0  0  0  0  0  0
    2.7900   -1.6120   -0.7750 C   0  0  0  0  0  0  0  0  0  0  0  0
    2.6260   -2.3270    0.2460 O   0  0  0  0  0  0  0  0  0  0  0  0
    1.6810   -0.9200   -1.3040 N   0  0  0  0  0  0  0  0  0  0  0  0
    0.3880   -0.9960   -0.7530 C   0  0  0  0  0  0  0  0  0  0  0  0
   -0.4530    0.1140   -0.9730 C   0  0  0  0  0  0  0  0  0  0  0  0
   -1.7290    0.1130   -0.4880 C   0  0  0  0  0  0  0  0  0  0  0  0
   -2.2470   -0.9640    0.2310 C   0  0  0  0  0  0  0  0  0  0  0  0
   -3.5470   -0.9450    0.7200 O   0  0  0  0  0  0  0  0  0  0  0  0
   -4.3080    0.1810    0.4850 C   0  0  0  0  0  0  0  0  0  0  0  0
   -4.2960    1.2170    1.4140 C   0  0  0  0  0  0  0  0  0  0  0  0
   -5.0360    2.3540    1.2200 C   0  0  0  0  0  0  0  0  0  0  0  0
   -5.7980    2.4640    0.0890 C   0  0  0  0  0  0  0  0  0  0  0  0
   -5.8320    1.4450   -0.8600 C   0  0  0  0  0  0  0  0  0  0  0  0
   -6.8030    1.5600   -2.3200 Cl  0  0  0  0  0  0  0  0  0  0  0  0
   -5.0700    0.2960   -0.6410 C   0  0  0  0  0  0  0  0  0  0  0  0
   -1.4400   -2.0320    0.4440 C   0  0  0  0  0  0  0  0  0  0  0  0
   -1.9000   -3.1260    1.1490 O   0  0  0  0  0  0  0  0  0  0  0  0
   -0.1420   -2.0300   -0.0500 C   0  0  0  0  0  0  0  0  0  0  0  0
    5.2660    1.0850   -0.6610 S   0  0  0  0  0  0  0  0  0  0  0  0
  1  2  1  0
  2  3  2  0
  2 25  1  0
  3  4  1  0
  4  5  2  0
  5  6  1  0
  5 25  1  0
  6  7  1  0
  7  8  2  0
  7  9  1  0
  9 10  1  0
 10 11  2  0
 10 24  1  0
 11 12  1  0
 12 13  2  0
 13 14  1  0
 13 22  1  0
 14 15  1  0
 15 16  2  0
 15 21  1  0
 16 17  1  0
 17 18  2  0
 18 19  1  0
 19 20  1  0
 19 21  2  0
 22 23  1  0
 22 24  2  0
M  END
