
     RDKit          3D

 25 26  0  0  0  0  0  0  0  0999 V2000
    0.9110    0.5380   -0.4140 O   0  0  0  0  0  0  0  0  0  0  0  0
    1.0760   -0.4170    0.3570 C   0  0  0  0  0  0  0  0  0  0  0  0
   -0.0850   -1.1030    0.9790 C   0  0  0  0  0  0  0  0  0  0  0  0
   -1.3710   -0.4850    0.5410 C   0  0  0  0  0  0  0  0  0  0  0  0
   -1.4070    0.5050   -0.2760 N   0  0  0  0  0  0  0  0  0  0  0  0
   -2.5680    1.1560   -0.7440 C   0  0  0  0  0  0  0  0  0  0  0  0
   -3.4370    1.7000    0.1160 C   0  0  0  0  0  0  0  0  0  0  0  0
   -4.6600    2.3880   -0.3230 C   0  0  0  0  0  0  0  0  0  0  0  0
   -4.7150    2.3360   -2.0990 Cl  0  0  0  0  0  0  0  0  0  0  0  0
   -2.5720   -0.9950    1.0490 N   0  0  0  0  0  0  0  0  0  0  0  0
   -3.7550   -1.2620    0.2080 C   0  0  0  0  0  0  0  0  0  0  0  0
   -5.0010   -1.3520    0.7070 C   0  0  0  0  0  0  0  0  0  0  0  0
   -6.0310   -1.6170   -0.0780 C   0  0  0  0  0  0  0  0  0  0  0  0
   -5.3240   -1.7800   -1.7170 S   0  0  0  0  0  0  0  0  0  0  0  0
   -3.6280   -1.4640   -1.1720 C   0  0  0  0  0  0  0  0  0  0  0  0
    2.3700   -0.8770    0.6640 N   0  0  0  0  0  0  0  0  0  0  0  0
    3.5930   -0.3470    0.1700 C   0  0  0  0  0  0  0  0  0  0  0  0
    3.7280    0.7930   -0.5770 C   0  0  0  0  0  0  0  0  0  0  0  0
    4.9330    1.2820   -1.0560 C   0  0  0  0  0  0  0  0  0  0  0  0
    6.0720    0.5750   -0.7610 C   0  0  0  0  0  0  0  0  0  0  0  0
    7.3160    1.0750   -1.2520 N   0  0  0  0  0  0  0  0  0  0  0  0
    8.3730    0.4620   -1.0060 O   0  0  0  0  0  0  0  0  0  0  0  0
    7.3880    2.2170   -1.9930 O   0  0  0  0  0  0  0  0  0  0  0  0
    6.0160   -0.5900   -0.0080 C   0  0  0  0  0  0  0  0  0  0  0  0
    4.7940   -1.0220    0.4370 C   0  0  0  0  0  0  0  0  0  0  0  0
  1  2  2  0
  2  3  1  0
  2 16  1  0
  3  4  1  0
  4  5  2  3
  4 10  1  0
  5  6  1  0
  6  7  2  3
  7  8  1  0
  8  9  1  0
 10 11  1  0
 11 12  1  0
 11 15  2  0
 12 13  2  0
 13 14  1  0
 14 15  1  0
 16 17  1  0
 17 18  2  0
 17 25  1  0
 18 19  1  0
 19 20  2  0
 20 21  1  0
 20 24  1  0
 21 22  2  0
 21 23  1  0
 24 25  2  0
M  CHG  2  21   1  23  -1
M  END
