
     RDKit          3D

 25 27  0  0  0  0  0  0  0  0999 V2000
   -4.9640   -1.8300   -0.6180 C   0  0  0  0  0  0  0  0  0  0  0  0
   -4.9420   -0.6830    0.0120 C   0  0  0  0  0  0  0  0  0  0  0  0
   -6.2050    0.0520    0.2610 C   0  0  0  0  0  0  0  0  0  0  0  0
   -7.3230   -0.4160   -0.1310 N   0  0  0  0  0  0  0  0  0  0  0  0
   -6.1150    1.3260    0.9700 C   0  0  0  0  0  0  0  0  0  0  0  0
   -4.9780    1.8260    1.3810 C   0  0  0  0  0  0  0  0  0  0  0  0
   -3.7390    1.1160    1.1420 C   0  0  0  0  0  0  0  0  0  0  0  0
   -3.7140   -0.0700    0.4960 C   0  0  0  0  0  0  0  0  0  0  0  0
   -2.4010   -0.7090    0.3060 C   0  0  0  0  0  0  0  0  0  0  0  0
   -2.1060   -1.8560   -0.2850 N   0  0  0  0  0  0  0  0  0  0  0  0
   -0.7980   -2.0330   -0.2230 N   0  0  0  0  0  0  0  0  0  0  0  0
   -0.2390   -0.9840    0.4190 C   0  0  0  0  0  0  0  0  0  0  0  0
    1.4920   -0.7080    0.7810 S   0  0  0  0  0  0  0  0  0  0  0  0
    2.2450    0.1870   -0.5960 C   0  0  0  0  0  0  0  0  0  0  0  0
    3.6890    0.4460   -0.3540 C   0  0  0  0  0  0  0  0  0  0  0  0
    4.1230    1.5820    0.2710 C   0  0  0  0  0  0  0  0  0  0  0  0
    5.4700    1.7730    0.4690 C   0  0  0  0  0  0  0  0  0  0  0  0
    6.4270    0.8620    0.0640 C   0  0  0  0  0  0  0  0  0  0  0  0
    8.1480    1.1270    0.3290 Cl  0  0  0  0  0  0  0  0  0  0  0  0
    5.9600   -0.2740   -0.5630 C   0  0  0  0  0  0  0  0  0  0  0  0
    6.8950   -1.2570   -1.0070 N   0  0  0  0  0  0  0  0  0  0  0  0
    6.5730   -1.9710   -1.9770 O   0  0  0  0  0  0  0  0  0  0  0  0
    8.0970   -1.3940   -0.3780 O   0  0  0  0  0  0  0  0  0  0  0  0
    4.6130   -0.4810   -0.7700 C   0  0  0  0  0  0  0  0  0  0  0  0
   -1.2400   -0.2050    0.7230 O   0  0  0  0  0  0  0  0  0  0  0  0
  1  2  2  0
  2  3  1  0
  2  8  1  0
  3  4  2  0
  3  5  1  0
  5  6  2  0
  6  7  1  0
  7  8  2  0
  8  9  1  0
  9 10  2  0
  9 25  1  0
 10 11  1  0
 11 12  2  0
 12 13  1  0
 12 25  1  0
 13 14  1  0
 14 15  1  0
 15 16  2  0
 15 24  1  0
 16 17  1  0
 17 18  2  0
 18 19  1  0
 18 20  1  0
 20 21  1  0
 20 24  2  0
 21 22  2  0
 21 23  1  0
M  CHG  2  21   1  23  -1
M  END
