
     RDKit          3D

 43 44  0  0  0  0  0  0  0  0999 V2000
   -6.8650    4.1990    1.3830 C   0  0  0  0  0  0  0  0  0  0  0  0
   -5.4910    4.4120    0.8140 C   0  0  0  0  0  0  0  0  0  0  0  0
   -4.5420    3.8550    1.7020 O   0  0  0  0  0  0  0  0  0  0  0  0
   -4.5290    2.5030    2.0440 C   0  0  0  0  0  0  0  0  0  0  0  0
   -5.3900    1.7650    1.5430 O   0  0  0  0  0  0  0  0  0  0  0  0
   -3.5250    2.0000    2.9620 C   0  0  0  0  0  0  0  0  0  0  0  0
   -3.4240    0.4720    2.8980 C   0  0  0  0  0  0  0  0  0  0  0  0
   -2.8800    0.0120    1.6060 N   0  0  0  0  0  0  0  0  0  0  0  0
   -1.4450    0.1510    1.5970 C   0  0  0  0  0  0  0  0  0  0  0  0
   -0.9640    0.8010    2.6210 O   0  0  0  0  0  0  0  0  0  0  0  0
   -0.4580   -0.3010    0.6750 C   0  0  0  0  0  0  0  0  0  0  0  0
    0.8500    0.0200    0.9110 C   0  0  0  0  0  0  0  0  0  0  0  0
    1.9450   -0.3660    0.0660 C   0  0  0  0  0  0  0  0  0  0  0  0
    3.0820   -0.8940    0.6550 C   0  0  0  0  0  0  0  0  0  0  0  0
    4.2090   -1.2790   -0.0680 C   0  0  0  0  0  0  0  0  0  0  0  0
    5.3580   -1.7630    0.6520 C   0  0  0  0  0  0  0  0  0  0  0  0
    5.1890   -2.7930    1.3670 O   0  0  0  0  0  0  0  0  0  0  0  0
    6.6540   -1.1500    0.6010 C   0  0  0  0  0  0  0  0  0  0  0  0
    6.9610   -0.0500   -0.0580 C   0  0  0  0  0  0  0  0  0  0  0  0
    8.3060    0.5110   -0.0640 C   0  0  0  0  0  0  0  0  0  0  0  0
    9.3340   -0.0980    0.6310 O   0  0  0  0  0  0  0  0  0  0  0  0
    8.5450    1.6080   -0.7370 C   0  0  0  0  0  0  0  0  0  0  0  0
    9.8670    2.2320   -0.7930 C   0  0  0  0  0  0  0  0  0  0  0  0
   10.8030    1.6700   -0.1550 O   0  0  0  0  0  0  0  0  0  0  0  0
   10.0990    3.3810   -1.5040 O   0  0  0  0  0  0  0  0  0  0  0  0
    4.1660   -1.1200   -1.4310 C   0  0  0  0  0  0  0  0  0  0  0  0
    5.3360   -1.5820   -2.2510 C   0  0  0  0  0  0  0  0  0  0  0  0
    3.0720   -0.6080   -2.0280 N   0  0  0  0  0  0  0  0  0  0  0  0
    1.9810   -0.2350   -1.3090 C   0  0  0  0  0  0  0  0  0  0  0  0
    0.9830    0.2400   -1.8950 O   0  0  0  0  0  0  0  0  0  0  0  0
   -0.6390   -1.0560   -0.4640 O   0  0  0  0  0  0  0  0  0  0  0  0
   -0.4030   -2.4450   -0.4480 C   0  0  0  0  0  0  0  0  0  0  0  0
   -0.6240   -3.0840   -1.7790 C   0  0  0  0  0  0  0  0  0  0  0  0
   -0.3620   -4.4570   -1.6410 O   0  0  0  0  0  0  0  0  0  0  0  0
   -3.5800   -0.3050    0.4450 C   0  0  0  0  0  0  0  0  0  0  0  0
   -4.6990   -0.9870    0.3090 C   0  0  0  0  0  0  0  0  0  0  0  0
   -5.4160   -1.5790    1.3930 C   0  0  0  0  0  0  0  0  0  0  0  0
   -5.2210   -1.6820    2.5730 O   0  0  0  0  0  0  0  0  0  0  0  0
   -5.2440   -1.1420   -1.0850 C   0  0  2  0  0  0  0  0  0  0  0  0
   -4.8970   -2.4950   -1.6780 C   0  0  0  0  0  0  0  0  0  0  0  0
   -5.1140   -0.1340   -1.9160 O   0  0  0  0  0  0  0  0  0  0  0  0
   -4.2650    0.8690   -1.5880 C   0  0  0  0  0  0  0  0  0  0  0  0
   -3.0510    0.2080   -0.9080 C   0  0  0  0  0  0  0  0  0  0  0  0
  1  2  1  0
  2  3  1  0
  3  4  1  0
  4  5  2  0
  4  6  1  0
  6  7  1  0
  7  8  1  0
  8  9  1  0
  8 35  1  0
  9 10  2  0
  9 11  1  0
 11 12  2  3
 11 31  1  0
 12 13  1  0
 13 14  2  0
 13 29  1  0
 14 15  1  0
 15 16  1  0
 15 26  2  0
 16 17  2  0
 16 18  1  0
 18 19  2  3
 19 20  1  0
 20 21  1  0
 20 22  2  3
 22 23  1  0
 23 24  2  0
 23 25  1  0
 26 27  1  0
 26 28  1  0
 28 29  1  0
 29 30  2  0
 31 32  1  0
 32 33  1  0
 33 34  1  0
 35 36  2  0
 35 43  1  0
 36 37  1  0
 36 39  1  0
 37 38  2  0
 39 40  1  6
 39 41  1  0
 41 42  1  0
 42 43  1  0
M  END
