
     RDKit          3D

 43 44  0  0  0  0  0  0  0  0999 V2000
    6.5900    3.1530   -1.6170 C   0  0  0  0  0  0  0  0  0  0  0  0
    7.3480    1.9980   -1.2430 O   0  0  0  0  0  0  0  0  0  0  0  0
    6.7370    0.8240   -0.8720 C   0  0  0  0  0  0  0  0  0  0  0  0
    5.3380    0.7580   -0.8590 C   0  0  0  0  0  0  0  0  0  0  0  0
    4.6720   -0.3720   -0.5010 C   0  0  0  0  0  0  0  0  0  0  0  0
    3.2940   -0.5790   -0.4300 N   0  0  0  0  0  0  0  0  0  0  0  0
    2.3140    0.4290   -0.5770 C   0  0  0  0  0  0  0  0  0  0  0  0
    2.6410    1.5980   -0.7800 O   0  0  0  0  0  0  0  0  0  0  0  0
    0.9140    0.1600   -0.5020 N   0  0  0  0  0  0  0  0  0  0  0  0
   -0.1200    1.1940   -0.6350 C   0  0  2  0  0  0  0  0  0  0  0  0
   -1.4150    0.3880   -0.6530 C   0  0  0  0  0  0  0  0  0  0  0  0
   -1.3430   -0.8580   -0.5500 O   0  0  0  0  0  0  0  0  0  0  0  0
   -2.6410    0.9470   -0.7760 O   0  0  0  0  0  0  0  0  0  0  0  0
   -3.8740    0.2810   -0.8060 C   0  0  0  0  0  0  0  0  0  0  0  0
   -4.1470   -0.5120    0.4370 C   0  0  0  0  0  0  0  0  0  0  0  0
   -5.3460   -1.1800    0.4410 O   0  0  0  0  0  0  0  0  0  0  0  0
   -6.4410   -0.3600    0.3270 C   0  0  0  0  0  0  0  0  0  0  0  0
   -7.7190   -1.1160    0.3360 C   0  0  0  0  0  0  0  0  0  0  0  0
   -7.6650   -2.3650    0.4310 O   0  0  0  0  0  0  0  0  0  0  0  0
   -8.9300   -0.4930    0.2450 O   0  0  0  0  0  0  0  0  0  0  0  0
  -10.1780   -1.1430    0.2450 C   0  0  2  0  0  0  0  0  0  0  0  0
  -11.2270   -0.0330    0.1270 C   0  0  0  0  0  0  0  0  0  0  0  0
  -10.3870   -1.8590    1.5450 C   0  0  0  0  0  0  0  0  0  0  0  0
  -10.3540   -0.9550    2.6000 O   0  0  0  0  0  0  0  0  0  0  0  0
  -10.2970   -2.0410   -0.9130 C   0  0  0  0  0  0  0  0  0  0  0  0
  -11.3350   -2.7090   -1.0950 O   0  0  0  0  0  0  0  0  0  0  0  0
   -9.2510   -2.1460   -1.8080 O   0  0  0  0  0  0  0  0  0  0  0  0
   -0.0790    1.8680   -1.9540 C   0  0  0  0  0  0  0  0  0  0  0  0
    0.1750    3.3350   -1.9670 C   0  0  0  0  0  0  0  0  0  0  0  0
   -0.3350    4.0850   -0.7770 C   0  0  0  0  0  0  0  0  0  0  0  0
   -1.0710    3.2580    0.2140 C   0  0  0  0  0  0  0  0  0  0  0  0
   -0.2720    2.0500    0.5710 C   0  0  1  0  0  0  0  0  0  0  0  0
   -1.0330    1.1930    1.6180 C   0  0  0  0  0  0  0  0  0  0  0  0
    0.9430    2.5100    1.2880 C   0  0  0  0  0  0  0  0  0  0  0  0
    5.4830   -1.4630   -0.1480 C   0  0  0  0  0  0  0  0  0  0  0  0
    6.8490   -1.4130   -0.1570 C   0  0  0  0  0  0  0  0  0  0  0  0
    7.6600   -2.5830    0.2220 C   0  0  0  0  0  0  0  0  0  0  0  0
    7.1210   -3.6620    0.5610 O   0  0  0  0  0  0  0  0  0  0  0  0
    9.0410   -2.5140    0.2100 O   0  0  0  0  0  0  0  0  0  0  0  0
    9.8770   -3.6070    0.5650 C   0  0  1  0  0  0  0  0  0  0  0  0
   10.7440   -3.9340   -0.6150 C   0  0  0  0  0  0  0  0  0  0  0  0
   10.7830   -3.1390    1.6960 C   0  0  0  0  0  0  0  0  0  0  0  0
    7.4940   -0.2540   -0.5230 C   0  0  0  0  0  0  0  0  0  0  0  0
  1  2  1  0
  2  3  1  0
  3  4  2  0
  3 43  1  0
  4  5  1  0
  5  6  1  0
  5 35  2  0
  6  7  1  0
  7  8  2  0
  7  9  1  0
 10  9  1  1
 10 11  1  0
 10 28  1  0
 10 32  1  0
 11 12  2  0
 11 13  1  0
 13 14  1  0
 14 15  1  0
 15 16  1  0
 16 17  1  0
 17 18  1  0
 18 19  2  0
 18 20  1  0
 20 21  1  0
 21 22  1  6
 21 23  1  0
 21 25  1  0
 23 24  1  0
 25 26  2  0
 25 27  1  0
 28 29  1  0
 29 30  1  0
 30 31  1  0
 31 32  1  0
 32 33  1  1
 32 34  1  0
 35 36  1  0
 36 37  1  0
 36 43  2  0
 37 38  2  0
 37 39  1  0
 39 40  1  0
 40 41  1  6
 40 42  1  0
M  END
