
     RDKit          3D

 43 44  0  0  0  0  0  0  0  0999 V2000
   -6.1820   -1.6180   -3.0240 C   0  0  0  0  0  0  0  0  0  0  0  0
   -5.8570   -0.3080   -3.0000 O   0  0  0  0  0  0  0  0  0  0  0  0
   -6.2360    0.4040   -1.8520 C   0  0  0  0  0  0  0  0  0  0  0  0
   -5.5960   -0.0150   -0.6020 C   0  0  0  0  0  0  0  0  0  0  0  0
   -4.3000   -0.6030   -0.7160 C   0  0  0  0  0  0  0  0  0  0  0  0
   -3.4240   -0.7100    0.3250 C   0  0  0  0  0  0  0  0  0  0  0  0
   -2.1940   -1.3030    0.1490 O   0  0  0  0  0  0  0  0  0  0  0  0
   -1.9020   -1.7950   -1.1220 C   0  0  0  0  0  0  0  0  0  0  0  0
   -0.6310   -2.4870   -1.3580 C   0  0  0  0  0  0  0  0  0  0  0  0
    0.5670   -1.7590   -1.1280 O   0  0  0  0  0  0  0  0  0  0  0  0
    0.8100   -0.6170   -1.8240 C   0  0  0  0  0  0  0  0  0  0  0  0
   -0.0480   -0.1850   -2.6390 O   0  0  0  0  0  0  0  0  0  0  0  0
    2.0530    0.1910   -1.7140 C   0  0  0  0  0  0  0  0  0  0  0  0
    2.1180    1.2780   -2.4390 C   0  0  0  0  0  0  0  0  0  0  0  0
    1.0120    1.6010   -3.2650 O   0  0  0  0  0  0  0  0  0  0  0  0
    3.0440   -0.2310   -0.8850 O   0  0  0  0  0  0  0  0  0  0  0  0
    4.3040    0.2390   -0.7600 C   0  0  0  0  0  0  0  0  0  0  0  0
    4.6910    1.2140   -1.4980 O   0  0  0  0  0  0  0  0  0  0  0  0
    5.3410   -0.2940    0.1940 C   0  0  0  0  0  0  0  0  0  0  0  0
    6.6750    0.0700   -0.2640 N   0  0  0  0  0  0  0  0  0  0  0  0
    7.8490   -0.2280    0.4950 C   0  0  0  0  0  0  0  0  0  0  0  0
    7.6570   -0.8100    1.6180 O   0  0  0  0  0  0  0  0  0  0  0  0
    9.1680    0.1400   -0.0340 C   0  0  1  0  0  0  0  0  0  0  0  0
    8.9430    0.0740   -1.5080 O   0  0  0  0  0  0  0  0  0  0  0  0
    9.4390    1.5920    0.1940 C   0  0  0  0  0  0  0  0  0  0  0  0
    9.6030    2.1640    1.3550 O   0  0  0  0  0  0  0  0  0  0  0  0
   10.5030    1.9920    2.2960 C   0  0  0  0  0  0  0  0  0  0  0  0
   10.2830   -0.8120    0.1340 C   0  0  0  0  0  0  0  0  0  0  0  0
   10.7060   -1.2410    1.4500 C   0  0  0  0  0  0  0  0  0  0  0  0
   12.0760   -1.1670    1.8970 N   0  0  0  0  0  0  0  0  0  0  0  0
    9.9030   -1.7060    2.2900 O   0  0  0  0  0  0  0  0  0  0  0  0
   -3.8030   -0.2270    1.5260 C   0  0  0  0  0  0  0  0  0  0  0  0
   -5.0450    0.3500    1.7040 C   0  0  0  0  0  0  0  0  0  0  0  0
   -5.3530    0.8980    2.9340 C   0  0  0  0  0  0  0  0  0  0  0  0
   -4.4250    0.7890    3.9630 O   0  0  0  0  0  0  0  0  0  0  0  0
   -6.5580    1.5280    3.0900 C   0  0  0  0  0  0  0  0  0  0  0  0
   -7.4810    1.6310    2.0860 C   0  0  0  0  0  0  0  0  0  0  0  0
   -8.6780    2.3860    2.2650 C   0  0  0  0  0  0  0  0  0  0  0  0
   -7.1810    1.0640    0.8350 C   0  0  0  0  0  0  0  0  0  0  0  0
   -8.2600    0.9270   -0.0950 C   0  0  1  0  0  0  0  0  0  0  0  0
   -8.2340   -0.5270   -0.5730 C   0  0  0  0  0  0  0  0  0  0  0  0
   -9.7170    0.9690    0.4170 C   0  0  0  0  0  0  0  0  0  0  0  0
   -5.9620    0.4440    0.6200 C   0  0  0  0  0  0  0  0  0  0  0  0
  1  2  1  0
  2  3  1  0
  3  4  1  0
  4  5  2  0
  4 43  1  0
  5  6  1  0
  6  7  1  0
  6 32  2  0
  7  8  1  0
  8  9  1  0
  9 10  1  0
 10 11  1  0
 11 12  2  0
 11 13  1  0
 13 14  2  3
 13 16  1  0
 14 15  1  0
 16 17  1  0
 17 18  2  0
 17 19  1  0
 19 20  1  0
 20 21  1  0
 21 22  2  0
 21 23  1  0
 23 24  1  6
 23 25  1  0
 23 28  1  0
 25 26  1  0
 26 27  1  0
 28 29  1  0
 29 30  1  0
 29 31  2  0
 32 33  1  0
 33 34  2  0
 33 43  1  0
 34 35  1  0
 34 36  1  0
 36 37  2  0
 37 38  1  0
 37 39  1  0
 39 40  1  0
 39 43  2  0
 40 41  1  1
 40 42  1  0
M  END
