
     RDKit          3D

 42 45  0  0  0  0  0  0  0  0999 V2000
   -5.8260   -3.6720    2.8090 O   0  0  0  0  0  0  0  0  0  0  0  0
   -5.5110   -3.1000    1.7260 C   0  0  0  0  0  0  0  0  0  0  0  0
   -6.2790   -2.1570    1.1200 O   0  0  0  0  0  0  0  0  0  0  0  0
   -4.2040   -3.4990    1.0800 C   0  0  0  0  0  0  0  0  0  0  0  0
   -3.8070   -2.6890   -0.0670 C   0  0  0  0  0  0  0  0  0  0  0  0
   -3.4870   -1.2480    0.0110 C   0  0  0  0  0  0  0  0  0  0  0  0
   -2.4320   -0.8210    0.7110 O   0  0  0  0  0  0  0  0  0  0  0  0
   -1.9920   -0.7310    1.9480 C   0  0  0  0  0  0  0  0  0  0  0  0
   -2.7080   -1.1250    3.0620 C   0  0  0  0  0  0  0  0  0  0  0  0
   -2.3210   -1.0500    4.3750 C   0  0  0  0  0  0  0  0  0  0  0  0
   -1.0770   -0.5220    4.6060 C   0  0  0  0  0  0  0  0  0  0  0  0
   -0.2920   -0.1020    3.5680 C   0  0  0  0  0  0  0  0  0  0  0  0
   -0.7360   -0.1970    2.2270 C   0  0  0  0  0  0  0  0  0  0  0  0
    0.2370    0.2780    1.2170 C   0  0  1  0  0  0  0  0  0  0  0  0
    1.5220    0.1020    1.9730 N   0  0  0  0  0  0  0  0  0  0  0  0
    2.6050    1.3320    2.0080 S   0  0  2  0  0  0  0  0  0  0  0  0
    3.5250    1.2630    3.1670 O   0  0  0  0  0  0  0  0  0  0  0  0
    1.8390    2.7260    2.0650 O   0  0  0  0  0  0  0  0  0  0  0  0
    3.5690    1.5520    0.5210 C   0  0  0  0  0  0  0  0  0  0  0  0
    3.1750    2.3020   -0.5200 C   0  0  0  0  0  0  0  0  0  0  0  0
    3.9070    2.5090   -1.6340 C   0  0  0  0  0  0  0  0  0  0  0  0
    5.1950    1.9250   -1.7120 C   0  0  0  0  0  0  0  0  0  0  0  0
    5.9690    2.0990   -2.8050 N   0  0  0  0  0  0  0  0  0  0  0  0
    7.2060    1.5440   -2.9010 C   0  0  0  0  0  0  0  0  0  0  0  0
    7.8440    1.7660   -3.9600 O   0  0  0  0  0  0  0  0  0  0  0  0
    7.6750    0.7700   -1.8570 C   0  0  0  0  0  0  0  0  0  0  0  0
    6.8840    0.5950   -0.7630 C   0  0  0  0  0  0  0  0  0  0  0  0
    5.6030    1.1650   -0.6410 C   0  0  0  0  0  0  0  0  0  0  0  0
    4.8320    0.9520    0.4980 C   0  0  0  0  0  0  0  0  0  0  0  0
    0.4330   -0.4720   -0.0080 C   0  0  0  0  0  0  0  0  0  0  0  0
    0.8900   -1.6430    0.0650 O   0  0  0  0  0  0  0  0  0  0  0  0
    0.1340    0.0910   -1.2930 N   0  0  0  0  0  0  0  0  0  0  0  0
    0.4430   -0.7210   -2.4570 C   0  0  0  0  0  0  0  0  0  0  0  0
   -0.5550   -1.6100   -2.9830 C   0  0  0  0  0  0  0  0  0  0  0  0
   -1.7370   -1.7190   -2.6190 O   0  0  0  0  0  0  0  0  0  0  0  0
   -0.2100   -2.4750   -4.0410 O   0  0  0  0  0  0  0  0  0  0  0  0
   -0.3870    1.4060   -1.5370 C   0  0  0  0  0  0  0  0  0  0  0  0
   -1.8240    1.6000   -1.5950 C   0  0  0  0  0  0  0  0  0  0  0  0
   -2.6580    1.9960   -0.4880 C   0  0  0  0  0  0  0  0  0  0  0  0
   -3.9340    2.1360   -0.7530 C   0  0  0  0  0  0  0  0  0  0  0  0
   -4.4390    1.9270   -2.0100 C   0  0  0  0  0  0  0  0  0  0  0  0
   -2.9140    1.4620   -2.9340 S   0  0  0  0  0  0  0  0  0  0  0  0
  1  2  2  0
  2  3  1  0
  2  4  1  0
  4  5  1  0
  5  6  1  0
  6  7  1  0
  7  8  1  0
  8  9  2  0
  8 13  1  0
  9 10  1  0
 10 11  2  0
 11 12  1  0
 12 13  2  0
 13 14  1  0
 14 15  1  1
 14 30  1  0
 16 15  1  6
 16 17  2  0
 16 18  2  0
 16 19  1  0
 19 20  2  0
 19 29  1  0
 20 21  1  0
 21 22  2  0
 22 23  1  0
 22 28  1  0
 23 24  1  0
 24 25  2  0
 24 26  1  0
 26 27  2  0
 27 28  1  0
 28 29  2  0
 30 31  2  0
 30 32  1  0
 32 33  1  0
 32 37  1  0
 33 34  1  0
 34 35  2  0
 34 36  1  0
 37 38  1  0
 38 39  2  0
 38 42  1  0
 39 40  1  0
 40 41  2  0
 41 42  1  0
M  END
