
     RDKit          3D

 40 44  0  0  0  0  0  0  0  0999 V2000
    0.6610    2.8040    3.4020 C   0  0  0  0  0  0  0  0  0  0  0  0
    0.9300    1.8890    2.3240 N   0  0  0  0  0  0  0  0  0  0  0  0
    2.0550    1.2830    2.0720 N   0  0  0  0  0  0  0  0  0  0  0  0
    2.0140    0.4900    1.0190 C   0  0  0  0  0  0  0  0  0  0  0  0
    3.0500   -0.3600    0.3880 C   0  0  0  0  0  0  0  0  0  0  0  0
    2.7540   -1.0750   -0.6040 O   0  0  0  0  0  0  0  0  0  0  0  0
    4.3720   -0.3920    0.8680 N   0  0  0  0  0  0  0  0  0  0  0  0
    5.4310   -1.1460    0.3700 C   0  0  0  0  0  0  0  0  0  0  0  0
    5.3300   -2.1880   -0.5060 C   0  0  0  0  0  0  0  0  0  0  0  0
    6.4250   -2.8860   -0.9840 C   0  0  0  0  0  0  0  0  0  0  0  0
    7.7130   -2.5440   -0.5770 C   0  0  0  0  0  0  0  0  0  0  0  0
    7.8350   -1.4970    0.3060 C   0  0  0  0  0  0  0  0  0  0  0  0
    6.7270   -0.8200    0.7650 C   0  0  0  0  0  0  0  0  0  0  0  0
    9.1540   -1.1040    0.7330 N   0  0  0  0  0  0  0  0  0  0  0  0
   10.2840   -1.8060    0.2310 C   0  0  0  0  0  0  0  0  0  0  0  0
   11.3110   -1.9100    0.9010 O   0  0  0  0  0  0  0  0  0  0  0  0
   10.0930   -2.3800   -1.1500 C   0  0  0  0  0  0  0  0  0  0  0  0
    8.8920   -3.2850   -1.0620 C   0  0  1  0  0  0  0  0  0  0  0  0
    9.2100   -4.2950   -0.1320 O   0  0  0  0  0  0  0  0  0  0  0  0
    0.7000    0.6120    0.5490 C   0  0  0  0  0  0  0  0  0  0  0  0
    0.0270    1.4880    1.3700 C   0  0  0  0  0  0  0  0  0  0  0  0
   -1.3130    1.9890    1.2310 C   0  0  0  0  0  0  0  0  0  0  0  0
   -1.5880    3.0180    1.9860 O   0  0  0  0  0  0  0  0  0  0  0  0
   -2.3300    1.5530    0.4320 N   0  0  0  0  0  0  0  0  0  0  0  0
   -2.5220    0.1980   -0.0380 C   0  0  0  0  0  0  0  0  0  0  0  0
   -3.3960   -0.4600    1.0020 C   0  0  0  0  0  0  0  0  0  0  0  0
   -4.5410   -0.9660    0.7520 C   0  0  0  0  0  0  0  0  0  0  0  0
   -5.2240   -1.0180   -0.5390 C   0  0  0  0  0  0  0  0  0  0  0  0
   -5.5060   -2.4600   -0.9730 C   0  0  1  0  0  0  0  0  0  0  0  0
   -4.3290   -3.3840   -1.1470 C   0  0  0  0  0  0  0  0  0  0  0  0
   -6.7980   -3.0290   -0.5860 C   0  0  0  0  0  0  0  0  0  0  0  0
   -6.6020   -2.6200   -2.0080 C   0  0  0  0  0  0  0  0  0  0  0  0
   -3.3940    2.5060    0.1210 C   0  0  0  0  0  0  0  0  0  0  0  0
   -4.2520    2.8100    1.1460 C   0  0  0  0  0  0  0  0  0  0  0  0
   -5.2910    3.7200    0.9180 C   0  0  0  0  0  0  0  0  0  0  0  0
   -5.4180    4.2780   -0.3250 C   0  0  0  0  0  0  0  0  0  0  0  0
   -6.5130    5.2460   -0.5880 C   0  0  0  0  0  0  0  0  0  0  0  0
   -7.2960    5.3950    0.5410 O   0  0  0  0  0  0  0  0  0  0  0  0
   -4.5440    3.9700   -1.3750 C   0  0  0  0  0  0  0  0  0  0  0  0
   -3.5290    3.0680   -1.1140 C   0  0  0  0  0  0  0  0  0  0  0  0
  1  2  1  0
  2  3  1  0
  2 21  1  0
  3  4  2  0
  4  5  1  0
  4 20  1  0
  5  6  2  0
  5  7  1  0
  7  8  1  0
  8  9  2  0
  8 13  1  0
  9 10  1  0
 10 11  2  0
 11 12  1  0
 11 18  1  0
 12 13  2  0
 12 14  1  0
 14 15  1  0
 15 16  2  0
 15 17  1  0
 17 18  1  0
 18 19  1  1
 20 21  2  0
 21 22  1  0
 22 23  2  0
 22 24  1  0
 24 25  1  0
 24 33  1  0
 25 26  1  0
 26 27  2  3
 27 28  1  0
 28 29  1  0
 29 30  1  6
 29 31  1  0
 29 32  1  0
 31 32  1  0
 33 34  2  0
 33 40  1  0
 34 35  1  0
 35 36  2  0
 36 37  1  0
 36 39  1  0
 37 38  1  0
 39 40  2  0
M  END
