
     RDKit          3D

 41 45  0  0  0  0  0  0  0  0999 V2000
    8.1270   -0.5700    0.8120 C   0  0  0  0  0  0  0  0  0  0  0  0
    7.8600   -2.0350    0.9550 C   0  0  0  0  0  0  0  0  0  0  0  0
    6.5410   -2.4490    0.5940 N   0  0  0  0  0  0  0  0  0  0  0  0
    6.1620   -3.8730    0.6030 C   0  0  0  0  0  0  0  0  0  0  0  0
    6.8590   -4.6710   -0.4470 C   0  0  0  0  0  0  0  0  0  0  0  0
    5.5410   -1.5000    0.2420 C   0  0  0  0  0  0  0  0  0  0  0  0
    4.2760   -1.7690   -0.1430 N   0  0  0  0  0  0  0  0  0  0  0  0
    3.6020   -0.5960   -0.3970 C   0  0  0  0  0  0  0  0  0  0  0  0
    2.1940   -0.5450   -0.8320 C   0  0  0  0  0  0  0  0  0  0  0  0
    1.6930    0.8450   -0.9850 C   0  0  2  0  0  0  0  0  0  0  0  0
    1.7600    1.6700    0.2630 C   0  0  2  0  0  0  0  0  0  0  0  0
    2.2100    1.0150    1.4140 O   0  0  0  0  0  0  0  0  0  0  0  0
    0.2150    1.7480    0.2290 C   0  0  1  0  0  0  0  0  0  0  0  0
   -0.3370    1.5260    1.6140 C   0  0  0  0  0  0  0  0  0  0  0  0
   -1.8350    1.5240    1.7060 C   0  0  0  0  0  0  0  0  0  0  0  0
   -2.4260    0.3260    1.2070 N   0  0  0  0  0  0  0  0  0  0  0  0
   -3.8270    0.1910    1.0170 C   0  0  0  0  0  0  0  0  0  0  0  0
   -4.5920    1.1380    1.2580 O   0  0  0  0  0  0  0  0  0  0  0  0
   -4.3710   -1.0500    0.5400 N   0  0  0  0  0  0  0  0  0  0  0  0
   -5.7150   -1.3090    0.2380 C   0  0  0  0  0  0  0  0  0  0  0  0
   -6.5930   -0.3020   -0.0790 C   0  0  0  0  0  0  0  0  0  0  0  0
   -7.8940   -0.5960   -0.4930 C   0  0  0  0  0  0  0  0  0  0  0  0
   -8.2870   -1.8910   -0.5820 C   0  0  0  0  0  0  0  0  0  0  0  0
   -7.4230   -2.9500   -0.2670 C   0  0  0  0  0  0  0  0  0  0  0  0
   -6.1540   -2.6250    0.1410 C   0  0  0  0  0  0  0  0  0  0  0  0
   -5.3050   -3.7550    0.5680 C   0  0  0  0  0  0  0  0  0  0  0  0
   -5.7540   -5.0130    0.5640 C   0  0  0  0  0  0  0  0  0  0  0  0
   -7.0280   -5.2620    0.1550 O   0  0  0  0  0  0  0  0  0  0  0  0
   -7.8760   -4.3370   -0.4270 C   0  0  1  0  0  0  0  0  0  0  0  0
   -9.1850   -4.4880    0.0220 F   0  0  0  0  0  0  0  0  0  0  0  0
   -0.0680    3.2280   -0.1070 C   0  0  0  0  0  0  0  0  0  0  0  0
    0.6030    4.1420    0.6730 C   0  0  0  0  0  0  0  0  0  0  0  0
    0.4280    5.5140    0.5150 C   0  0  0  0  0  0  0  0  0  0  0  0
   -0.4570    5.8960   -0.4730 C   0  0  0  0  0  0  0  0  0  0  0  0
   -0.6740    7.3640   -0.6730 C   0  0  0  0  0  0  0  0  0  0  0  0
   -1.1250    4.9720   -1.2520 C   0  0  0  0  0  0  0  0  0  0  0  0
   -0.9280    3.6130   -1.0670 C   0  0  0  0  0  0  0  0  0  0  0  0
    0.1420    0.8780   -0.8920 C   0  0  2  0  0  0  0  0  0  0  0  0
   -0.3740   -0.3830   -0.8740 O   0  0  0  0  0  0  0  0  0  0  0  0
    4.5090    0.3530   -0.1490 N   0  0  0  0  0  0  0  0  0  0  0  0
    5.6320   -0.2030    0.2220 O   0  0  0  0  0  0  0  0  0  0  0  0
  1  2  1  0
  2  3  1  0
  3  4  1  0
  3  6  1  0
  4  5  1  0
  6  7  2  0
  6 41  1  0
  7  8  1  0
  8  9  1  0
  8 40  2  0
 10  9  1  1
 10 11  1  0
 10 38  1  0
 11 12  1  1
 11 13  1  0
 13 14  1  1
 13 31  1  0
 13 38  1  0
 14 15  1  0
 15 16  1  0
 16 17  1  0
 17 18  2  0
 17 19  1  0
 19 20  1  0
 20 21  2  0
 20 25  1  0
 21 22  1  0
 22 23  2  0
 23 24  1  0
 24 25  2  0
 24 29  1  0
 25 26  1  0
 26 27  2  0
 27 28  1  0
 28 29  1  0
 29 30  1  1
 31 32  2  0
 31 37  1  0
 32 33  1  0
 33 34  2  0
 34 35  1  0
 34 36  1  0
 36 37  2  0
 38 39  1  1
 40 41  1  0
M  END
