
     RDKit          3D

 41 45  0  0  0  0  0  0  0  0999 V2000
   -9.1520   -1.4300   -0.8610 C   0  0  0  0  0  0  0  0  0  0  0  0
   -7.6940   -1.3260   -1.3420 C   0  0  0  0  0  0  0  0  0  0  0  0
   -7.1620   -0.0470   -0.8040 C   0  0  0  0  0  0  0  0  0  0  0  0
   -5.7980    0.2390   -1.1400 N   0  0  0  0  0  0  0  0  0  0  0  0
   -4.7990   -0.0580   -0.3300 C   0  0  0  0  0  0  0  0  0  0  0  0
   -4.8610   -0.6100    1.0170 C   0  0  1  0  0  0  0  0  0  0  0  0
   -5.8980   -0.2350    1.9590 C   0  0  0  0  0  0  0  0  0  0  0  0
   -6.0680    1.1870    2.3870 C   0  0  0  0  0  0  0  0  0  0  0  0
   -4.7590   -2.1190    0.9240 C   0  0  0  0  0  0  0  0  0  0  0  0
   -3.6750   -2.5190    0.1520 O   0  0  0  0  0  0  0  0  0  0  0  0
   -3.6130   -0.2200    1.6740 N   0  0  0  0  0  0  0  0  0  0  0  0
   -3.0670    1.0610    1.7630 C   0  0  0  0  0  0  0  0  0  0  0  0
   -3.6440    2.0160    1.1890 O   0  0  0  0  0  0  0  0  0  0  0  0
   -1.8240    1.3710    2.5140 C   0  0  0  0  0  0  0  0  0  0  0  0
   -0.6010    1.4640    1.7310 C   0  0  0  0  0  0  0  0  0  0  0  0
   -0.0980    2.4260    0.9130 C   0  0  0  0  0  0  0  0  0  0  0  0
    1.1220    1.9860    0.4860 N   0  0  0  0  0  0  0  0  0  0  0  0
    1.3950    0.7950    1.0010 C   0  0  0  0  0  0  0  0  0  0  0  0
    2.5780   -0.0550    0.8480 C   0  0  0  0  0  0  0  0  0  0  0  0
    2.6680   -1.3010    1.4050 C   0  0  0  0  0  0  0  0  0  0  0  0
    3.8090   -2.0800    1.3060 C   0  0  0  0  0  0  0  0  0  0  0  0
    3.9210   -3.3120    1.8450 F   0  0  0  0  0  0  0  0  0  0  0  0
    4.9150   -1.5850    0.6130 C   0  0  0  0  0  0  0  0  0  0  0  0
    6.1070   -2.0610    0.3550 O   0  0  0  0  0  0  0  0  0  0  0  0
    6.8400   -1.2090   -0.3500 C   0  0  0  0  0  0  0  0  0  0  0  0
    6.0660   -0.1170   -0.5580 C   0  0  0  0  0  0  0  0  0  0  0  0
    4.8170   -0.3310    0.0520 C   0  0  0  0  0  0  0  0  0  0  0  0
    3.6650    0.4350    0.1620 C   0  0  0  0  0  0  0  0  0  0  0  0
    6.5110    1.0520   -1.3080 C   0  0  0  0  0  0  0  0  0  0  0  0
    7.8850    0.9670   -1.8920 C   0  0  2  0  0  0  0  0  0  0  0  0
    8.8010    1.7610   -0.9600 C   0  0  0  0  0  0  0  0  0  0  0  0
    7.8800    1.6220   -3.1190 O   0  0  0  0  0  0  0  0  0  0  0  0
    8.3480   -0.4480   -2.1000 C   0  0  1  0  0  0  0  0  0  0  0  0
    9.7550   -0.4920   -2.6760 C   0  0  0  0  0  0  0  0  0  0  0  0
    8.2320   -1.2960   -0.8690 C   0  0  0  0  0  0  0  0  0  0  0  0
    0.3410    0.4660    1.7660 N   0  0  0  0  0  0  0  0  0  0  0  0
   -3.5590    0.2020   -0.7820 N   0  0  0  0  0  0  0  0  0  0  0  0
   -3.2090    0.7290   -1.9520 C   0  0  0  0  0  0  0  0  0  0  0  0
   -4.2410    1.0460   -2.8060 C   0  0  0  0  0  0  0  0  0  0  0  0
   -5.4940    0.7840   -2.3530 C   0  0  0  0  0  0  0  0  0  0  0  0
   -6.4980    1.0620   -3.1150 O   0  0  0  0  0  0  0  0  0  0  0  0
  1  2  1  0
  2  3  1  0
  3  4  1  0
  4  5  1  0
  4 40  1  0
  5  6  1  0
  5 37  2  0
  6  7  1  1
  6  9  1  0
  6 11  1  0
  7  8  1  0
  9 10  1  0
 11 12  1  0
 12 13  2  0
 12 14  1  0
 14 15  1  0
 15 16  2  0
 15 36  1  0
 16 17  1  0
 17 18  2  0
 18 19  1  0
 18 36  1  0
 19 20  2  0
 19 28  1  0
 20 21  1  0
 21 22  1  0
 21 23  2  0
 23 24  1  0
 23 27  1  0
 24 25  1  0
 25 26  2  0
 25 35  1  0
 26 27  1  0
 26 29  1  0
 27 28  2  0
 29 30  1  0
 30 31  1  1
 30 32  1  0
 30 33  1  0
 33 34  1  1
 33 35  1  0
 37 38  1  0
 38 39  2  0
 39 40  1  0
 40 41  2  0
M  END
