
     RDKit          3D

 41 45  0  0  0  0  0  0  0  0999 V2000
    7.3260   -2.2560   -1.3050 C   0  0  0  0  0  0  0  0  0  0  0  0
    6.1990   -2.5760   -0.3360 C   0  0  2  0  0  0  0  0  0  0  0  0
    5.6110   -3.7850   -0.6890 O   0  0  0  0  0  0  0  0  0  0  0  0
    5.1390   -1.5240   -0.4330 C   0  0  0  0  0  0  0  0  0  0  0  0
    4.9690   -0.5740    0.5480 C   0  0  0  0  0  0  0  0  0  0  0  0
    3.9950    0.3920    0.4570 C   0  0  0  0  0  0  0  0  0  0  0  0
    3.1500    0.4360   -0.6320 C   0  0  0  0  0  0  0  0  0  0  0  0
    2.1540    1.3930   -0.7640 O   0  0  0  0  0  0  0  0  0  0  0  0
    2.0150    2.3360    0.2510 C   0  0  0  0  0  0  0  0  0  0  0  0
    0.9900    2.2950    1.0770 C   0  0  0  0  0  0  0  0  0  0  0  0
   -0.0020    1.2330    0.9040 C   0  0  0  0  0  0  0  0  0  0  0  0
    0.1190    0.3800   -0.0110 O   0  0  0  0  0  0  0  0  0  0  0  0
   -1.1890    1.1150    1.7930 C   0  0  0  0  0  0  0  0  0  0  0  0
   -2.0590    0.0300    1.4200 N   0  0  0  0  0  0  0  0  0  0  0  0
   -1.8820   -1.3040    1.9490 C   0  0  0  0  0  0  0  0  0  0  0  0
   -1.3180   -1.6330    3.0330 O   0  0  0  0  0  0  0  0  0  0  0  0
   -2.4880   -2.2060    0.9770 C   0  0  0  0  0  0  0  0  0  0  0  0
   -2.5700   -3.5000    1.0260 N   0  0  0  0  0  0  0  0  0  0  0  0
   -3.1820   -4.2430    0.0170 N   0  0  0  0  0  0  0  0  0  0  0  0
   -4.5780   -4.0680   -0.3380 C   0  0  0  0  0  0  0  0  0  0  0  0
   -5.0680   -3.8810   -1.5390 C   0  0  0  0  0  0  0  0  0  0  0  0
   -6.5280   -3.7500   -1.4680 C   0  0  0  0  0  0  0  0  0  0  0  0
   -6.8270   -3.8910   -0.0300 C   0  0  0  0  0  0  0  0  0  0  0  0
   -5.6890   -4.0730    0.6020 C   0  0  0  0  0  0  0  0  0  0  0  0
   -2.9890   -1.3810   -0.0690 N   0  0  0  0  0  0  0  0  0  0  0  0
   -3.1960   -0.0720    0.5650 C   0  0  2  0  0  0  0  0  0  0  0  0
   -3.3960    1.0070   -0.3950 C   0  0  0  0  0  0  0  0  0  0  0  0
   -2.6960    1.1830   -1.5550 C   0  0  0  0  0  0  0  0  0  0  0  0
   -2.9490    2.2400   -2.4040 C   0  0  0  0  0  0  0  0  0  0  0  0
   -3.9250    3.1780   -2.1280 C   0  0  0  0  0  0  0  0  0  0  0  0
   -4.1570    4.2120   -2.9800 F   0  0  0  0  0  0  0  0  0  0  0  0
   -4.6420    3.0150   -0.9590 C   0  0  0  0  0  0  0  0  0  0  0  0
   -4.3790    1.9540   -0.1190 C   0  0  0  0  0  0  0  0  0  0  0  0
    0.7870    3.2530    2.1610 C   0  0  0  0  0  0  0  0  0  0  0  0
    1.6210    4.4800    2.1260 C   0  0  0  0  0  0  0  0  0  0  0  0
    2.8930    4.3150    1.3920 C   0  0  0  0  0  0  0  0  0  0  0  0
    3.8540    5.0530    1.6950 O   0  0  0  0  0  0  0  0  0  0  0  0
    3.0020    3.3440    0.3770 N   0  0  0  0  0  0  0  0  0  0  0  0
    4.1500    3.4340   -0.5070 C   0  0  0  0  0  0  0  0  0  0  0  0
    3.3220   -0.5140   -1.6100 C   0  0  0  0  0  0  0  0  0  0  0  0
    4.2990   -1.4830   -1.5200 C   0  0  0  0  0  0  0  0  0  0  0  0
  2  1  1  6
  2  3  1  0
  2  4  1  0
  4  5  2  0
  4 41  1  0
  5  6  1  0
  6  7  2  0
  7  8  1  0
  7 40  1  0
  8  9  1  0
  9 10  2  0
  9 38  1  0
 10 11  1  0
 10 34  1  0
 11 12  2  0
 11 13  1  0
 13 14  1  0
 14 15  1  0
 14 26  1  0
 15 16  2  0
 15 17  1  0
 17 18  2  3
 17 25  1  0
 18 19  1  0
 19 20  1  0
 20 21  2  0
 20 24  1  0
 21 22  1  0
 22 23  1  0
 23 24  2  0
 25 26  1  0
 26 27  1  6
 27 28  2  0
 27 33  1  0
 28 29  1  0
 29 30  2  0
 30 31  1  0
 30 32  1  0
 32 33  2  0
 34 35  1  0
 35 36  1  0
 36 37  2  0
 36 38  1  0
 38 39  1  0
 40 41  2  0
M  END
