
     RDKit          3D

 41 45  0  0  0  0  0  0  0  0999 V2000
   -0.7130   -0.8200    3.8090 C   0  0  0  0  0  0  0  0  0  0  0  0
   -1.9160   -1.4920    3.7700 O   0  0  0  0  0  0  0  0  0  0  0  0
   -1.8450   -2.8290    4.0720 C   0  0  0  0  0  0  0  0  0  0  0  0
   -1.0820   -3.5740    3.0110 C   0  0  0  0  0  0  0  0  0  0  0  0
   -1.6430   -3.5310    1.7030 N   0  0  0  0  0  0  0  0  0  0  0  0
   -1.6660   -2.3300    0.8710 C   0  0  0  0  0  0  0  0  0  0  0  0
   -0.6210   -1.7560    0.6950 N   0  0  0  0  0  0  0  0  0  0  0  0
    0.1950   -0.8120    0.2170 C   0  0  0  0  0  0  0  0  0  0  0  0
    1.4720   -0.7640    0.6590 C   0  0  0  0  0  0  0  0  0  0  0  0
    2.4550    0.1970    0.2290 C   0  0  0  0  0  0  0  0  0  0  0  0
    2.1800    1.5250   -0.0100 C   0  0  0  0  0  0  0  0  0  0  0  0
    3.1570    2.4100   -0.4180 C   0  0  0  0  0  0  0  0  0  0  0  0
    4.4690    1.9960   -0.6070 C   0  0  0  0  0  0  0  0  0  0  0  0
    4.7570    0.6780   -0.3740 C   0  0  0  0  0  0  0  0  0  0  0  0
    3.7630   -0.1970    0.0370 C   0  0  0  0  0  0  0  0  0  0  0  0
    6.0680    0.1960   -0.5470 O   0  0  0  0  0  0  0  0  0  0  0  0
    7.1340    1.1320   -0.5730 C   0  0  2  0  0  0  0  0  0  0  0  0
    7.5400    1.5100    0.7860 C   0  0  0  0  0  0  0  0  0  0  0  0
    6.8680    0.9420    1.8990 N   0  0  0  0  0  0  0  0  0  0  0  0
    8.4900    2.3420    0.9420 O   0  0  0  0  0  0  0  0  0  0  0  0
    6.7320    2.3550   -1.3460 C   0  0  0  0  0  0  0  0  0  0  0  0
    5.4600    2.8590   -1.0120 O   0  0  0  0  0  0  0  0  0  0  0  0
   -0.0950    0.1790   -0.7190 O   0  0  0  0  0  0  0  0  0  0  0  0
   -0.5150   -0.0480   -1.9920 C   0  0  0  0  0  0  0  0  0  0  0  0
   -0.7880    0.9730   -2.8750 C   0  0  0  0  0  0  0  0  0  0  0  0
   -1.2120    0.6940   -4.1600 C   0  0  0  0  0  0  0  0  0  0  0  0
   -1.3530   -0.6370   -4.5270 C   0  0  0  0  0  0  0  0  0  0  0  0
   -1.0920   -1.6350   -3.6830 N   0  0  0  0  0  0  0  0  0  0  0  0
   -0.6770   -1.3430   -2.4270 C   0  0  0  0  0  0  0  0  0  0  0  0
   -2.9610   -1.9200    0.2930 C   0  0  0  0  0  0  0  0  0  0  0  0
   -3.9270   -2.8450   -0.0450 C   0  0  0  0  0  0  0  0  0  0  0  0
   -5.1130   -2.4790   -0.5740 N   0  0  0  0  0  0  0  0  0  0  0  0
   -5.4300   -1.1700   -0.8100 C   0  0  0  0  0  0  0  0  0  0  0  0
   -4.4890   -0.2260   -0.4840 C   0  0  0  0  0  0  0  0  0  0  0  0
   -4.7750    1.1960   -0.7290 C   0  0  0  0  0  0  0  0  0  0  0  0
   -3.9240    2.1860   -0.4680 C   0  0  0  0  0  0  0  0  0  0  0  0
   -4.5060    3.4870   -0.8250 C   0  0  0  0  0  0  0  0  0  0  0  0
   -5.8440    3.1360   -1.3410 C   0  0  0  0  0  0  0  0  0  0  0  0
   -5.9750    1.8030   -1.2760 C   0  0  0  0  0  0  0  0  0  0  0  0
   -7.1010    1.1460   -1.6780 F   0  0  0  0  0  0  0  0  0  0  0  0
   -3.2590   -0.6040    0.0670 C   0  0  0  0  0  0  0  0  0  0  0  0
  1  2  1  0
  2  3  1  0
  3  4  1  0
  4  5  1  0
  5  6  1  0
  6  7  2  3
  6 30  1  0
  7  8  1  0
  8  9  2  3
  8 23  1  0
  9 10  1  0
 10 11  2  0
 10 15  1  0
 11 12  1  0
 12 13  2  0
 13 14  1  0
 13 22  1  0
 14 15  2  0
 14 16  1  0
 16 17  1  0
 17 18  1  1
 17 21  1  0
 18 19  1  0
 18 20  2  0
 21 22  1  0
 23 24  1  0
 24 25  2  0
 24 29  1  0
 25 26  1  0
 26 27  2  0
 27 28  1  0
 28 29  2  0
 30 31  2  0
 30 41  1  0
 31 32  1  0
 32 33  2  0
 33 34  1  0
 34 35  1  0
 34 41  2  0
 35 36  2  0
 35 39  1  0
 36 37  1  0
 37 38  1  0
 38 39  2  0
 39 40  1  0
M  END
