
     RDKit          3D

 41 44  0  0  0  0  0  0  0  0999 V2000
   10.2690   -1.0530   -2.3040 C   0  0  0  0  0  0  0  0  0  0  0  0
    9.4880   -0.4780   -1.4500 C   0  0  0  0  0  0  0  0  0  0  0  0
    9.7540   -0.4820    0.0280 C   0  0  0  0  0  0  0  0  0  0  0  0
    9.1180    0.0180    0.9290 C   0  0  0  0  0  0  0  0  0  0  0  0
    7.8190    0.8720    1.0620 C   0  0  2  0  0  0  0  0  0  0  0  0
    8.4770    1.9630    1.8770 N   0  0  0  0  0  0  0  0  0  0  0  0
    8.4860    1.7110    3.1120 C   0  0  0  0  0  0  0  0  0  0  0  0
    7.8330    0.5370    3.7480 C   0  0  0  0  0  0  0  0  0  0  0  0
    7.1260   -0.2620    3.1270 C   0  0  0  0  0  0  0  0  0  0  0  0
    6.3620   -1.5020    3.3470 C   0  0  0  0  0  0  0  0  0  0  0  0
    5.3680   -1.8570    2.5320 C   0  0  0  0  0  0  0  0  0  0  0  0
    4.8040   -1.1420    1.4150 C   0  0  0  0  0  0  0  0  0  0  0  0
    5.0550    0.0490    1.1300 O   0  0  0  0  0  0  0  0  0  0  0  0
    3.8150   -1.6980    0.4570 N   0  0  0  0  0  0  0  0  0  0  0  0
    3.2630   -0.6640   -0.4460 C   0  0  1  0  0  0  0  0  0  0  0  0
    4.2920   -0.4680   -1.6090 C   0  0  0  0  0  0  0  0  0  0  0  0
    1.9430   -0.8730   -0.8980 C   0  0  0  0  0  0  0  0  0  0  0  0
    1.3340   -1.6090   -1.4880 O   0  0  0  0  0  0  0  0  0  0  0  0
    0.9490    0.5450   -0.3110 N   0  0  0  0  0  0  0  0  0  0  0  0
   -0.3090    0.1260   -0.9170 C   0  0  0  0  0  0  0  0  0  0  0  0
   -0.7410   -0.9570   -1.1950 O   0  0  0  0  0  0  0  0  0  0  0  0
   -1.1160    1.3300   -1.1280 N   0  0  0  0  0  0  0  0  0  0  0  0
   -2.4490    1.3860   -1.6380 C   0  0  0  0  0  0  0  0  0  0  0  0
   -3.2920    0.6640   -0.6030 C   0  0  0  0  0  0  0  0  0  0  0  0
   -2.6710    0.2280    0.3770 O   0  0  0  0  0  0  0  0  0  0  0  0
   -4.6710    0.5410   -0.8130 N   0  0  0  0  0  0  0  0  0  0  0  0
   -5.5460   -0.1140    0.1140 C   0  0  0  0  0  0  0  0  0  0  0  0
   -5.0090   -0.8090    1.1840 C   0  0  0  0  0  0  0  0  0  0  0  0
   -5.9280   -1.4560    2.0650 C   0  0  0  0  0  0  0  0  0  0  0  0
   -7.2590   -1.3860    1.8710 C   0  0  0  0  0  0  0  0  0  0  0  0
   -8.0900   -2.0210    2.7560 F   0  0  0  0  0  0  0  0  0  0  0  0
   -7.7970   -0.6830    0.7970 C   0  0  0  0  0  0  0  0  0  0  0  0
   -9.1360   -0.6380    0.6090 C   0  0  0  0  0  0  0  0  0  0  0  0
   -9.6320    0.0540   -0.4970 C   0  0  0  0  0  0  0  0  0  0  0  0
   -8.7930    0.6830   -1.3770 C   0  0  0  0  0  0  0  0  0  0  0  0
   -7.4370    0.6130   -1.1580 C   0  0  0  0  0  0  0  0  0  0  0  0
   -6.8950   -0.0470   -0.0900 C   0  0  0  0  0  0  0  0  0  0  0  0
   -9.5770    1.3080   -2.4900 C   0  0  0  0  0  0  0  0  0  0  0  0
  -10.9840    0.7910   -2.2900 C   0  0  0  0  0  0  0  0  0  0  0  0
  -11.0300    0.2290   -0.8990 C   0  0  0  0  0  0  0  0  0  0  0  0
    6.9600    0.1120    1.6800 O   0  0  0  0  0  0  0  0  0  0  0  0
  1  2  2  0
  2  3  1  0
  3  4  2  3
  5  4  1  1
  5  6  1  0
  5 41  1  0
  6  7  2  0
  7  8  1  0
  8  9  2  0
  9 10  1  0
  9 41  1  0
 10 11  2  3
 11 12  1  0
 12 13  2  0
 12 14  1  0
 14 15  1  0
 15 16  1  6
 15 17  1  0
 17 18  2  0
 17 19  1  0
 19 20  1  0
 20 21  2  0
 20 22  1  0
 22 23  1  0
 23 24  1  0
 24 25  2  0
 24 26  1  0
 26 27  1  0
 27 28  2  0
 27 37  1  0
 28 29  1  0
 29 30  2  0
 30 31  1  0
 30 32  1  0
 32 33  2  0
 32 37  1  0
 33 34  1  0
 34 35  2  0
 34 40  1  0
 35 36  1  0
 35 38  1  0
 36 37  2  0
 38 39  1  0
 39 40  1  0
M  END
