
     RDKit          3D

 41 45  0  0  0  0  0  0  0  0999 V2000
   -6.9980   -2.8250   -1.9360 C   0  0  0  0  0  0  0  0  0  0  0  0
   -5.8760   -2.1010   -1.2750 C   0  0  0  0  0  0  0  0  0  0  0  0
   -4.5980   -2.5490   -1.3550 C   0  0  0  0  0  0  0  0  0  0  0  0
   -3.5170   -1.9070   -0.7560 C   0  0  0  0  0  0  0  0  0  0  0  0
   -2.1420   -2.4160   -0.8580 C   0  0  0  0  0  0  0  0  0  0  0  0
   -3.7820   -0.7530   -0.0480 C   0  0  0  0  0  0  0  0  0  0  0  0
   -2.7690   -0.0520    0.5760 C   0  0  0  0  0  0  0  0  0  0  0  0
   -1.4690   -0.5290    0.4820 O   0  0  0  0  0  0  0  0  0  0  0  0
   -0.3400    0.0590    1.0490 C   0  0  0  0  0  0  0  0  0  0  0  0
    0.8240   -0.7940    0.6950 C   0  0  0  0  0  0  0  0  0  0  0  0
    1.3610   -1.8210    1.4380 C   0  0  0  0  0  0  0  0  0  0  0  0
    2.4170   -2.3080    0.7060 C   0  0  0  0  0  0  0  0  0  0  0  0
    2.4770   -1.5590   -0.4490 C   0  0  0  0  0  0  0  0  0  0  0  0
    3.4350   -1.6770   -1.5820 C   0  0  1  0  0  0  0  0  0  0  0  0
    2.5980   -2.2500   -2.7360 C   0  0  0  0  0  0  0  0  0  0  0  0
    3.8720   -0.3280   -1.9030 N   0  0  0  0  0  0  0  0  0  0  0  0
    5.2670   -0.0320   -1.9620 C   0  0  0  0  0  0  0  0  0  0  0  0
    6.0550   -0.9600   -1.7290 O   0  0  0  0  0  0  0  0  0  0  0  0
    5.7550    1.2600   -2.2730 N   0  0  0  0  0  0  0  0  0  0  0  0
    7.1390    1.5920   -2.3440 C   0  0  0  0  0  0  0  0  0  0  0  0
    7.9020    1.3980   -1.0990 C   0  0  0  0  0  0  0  0  0  0  0  0
    8.6730    0.2670   -0.9580 C   0  0  0  0  0  0  0  0  0  0  0  0
    9.3940    0.0630    0.1910 C   0  0  0  0  0  0  0  0  0  0  0  0
   10.1080   -0.9660    0.3440 O   0  0  0  0  0  0  0  0  0  0  0  0
    9.3480    0.9840    1.1980 N   0  0  0  0  0  0  0  0  0  0  0  0
    9.9390    1.0150    2.3770 N   0  0  0  0  0  0  0  0  0  0  0  0
    9.5710    2.1380    3.0030 C   0  0  0  0  0  0  0  0  0  0  0  0
    8.7190    2.8100    2.1600 C   0  0  0  0  0  0  0  0  0  0  0  0
    8.5810    2.0660    1.0090 C   0  0  0  0  0  0  0  0  0  0  0  0
    7.8840    2.2580   -0.1100 O   0  0  0  0  0  0  0  0  0  0  0  0
    1.5140   -0.6850   -0.3960 O   0  0  0  0  0  0  0  0  0  0  0  0
   -3.0610    1.1080    1.2830 C   0  0  0  0  0  0  0  0  0  0  0  0
   -4.3600    1.5660    1.3650 C   0  0  0  0  0  0  0  0  0  0  0  0
   -5.3910    0.8920    0.7550 C   0  0  0  0  0  0  0  0  0  0  0  0
   -6.8020    1.3580    0.8190 C   0  0  0  0  0  0  0  0  0  0  0  0
   -6.8250    2.5680    1.6130 N   0  0  0  0  0  0  0  0  0  0  0  0
   -8.1640    3.1140    1.7260 C   0  0  0  0  0  0  0  0  0  0  0  0
   -9.0860    2.2490    2.5430 C   0  0  0  0  0  0  0  0  0  0  0  0
   -8.6760    2.0500    3.8280 F   0  0  0  0  0  0  0  0  0  0  0  0
   -5.0930   -0.2650    0.0520 C   0  0  0  0  0  0  0  0  0  0  0  0
   -6.1230   -0.9420   -0.5610 C   0  0  0  0  0  0  0  0  0  0  0  0
  1  2  1  0
  2  3  2  0
  2 41  1  0
  3  4  1  0
  4  5  1  0
  4  6  2  0
  6  7  1  0
  6 40  1  0
  7  8  1  0
  7 32  2  0
  8  9  1  0
  9 10  1  0
 10 11  2  0
 10 31  1  0
 11 12  1  0
 12 13  2  0
 13 14  1  0
 13 31  1  0
 14 15  1  6
 14 16  1  0
 16 17  1  0
 17 18  2  0
 17 19  1  0
 19 20  1  0
 20 21  1  0
 21 22  2  0
 21 30  1  0
 22 23  1  0
 23 24  2  0
 23 25  1  0
 25 26  1  0
 25 29  1  0
 26 27  2  0
 27 28  1  0
 28 29  2  0
 29 30  1  0
 32 33  1  0
 33 34  2  0
 34 35  1  0
 34 40  1  0
 35 36  1  0
 36 37  1  0
 37 38  1  0
 38 39  1  0
 40 41  2  0
M  END
