
     RDKit          3D

 45 49  0  0  0  0  0  0  0  0999 V2000
    6.6280    5.7600   -0.3940 C   0  0  0  0  0  0  0  0  0  0  0  0
    7.6720    4.7500   -0.6700 C   0  0  0  0  0  0  0  0  0  0  0  0
    7.2700    3.3700   -0.9950 C   0  0  0  0  0  0  0  0  0  0  0  0
    6.4720    2.6320    0.0000 C   0  0  0  0  0  0  0  0  0  0  0  0
    5.2020    2.1290   -0.3340 C   0  0  0  0  0  0  0  0  0  0  0  0
    4.4820    1.3460    0.5140 C   0  0  0  0  0  0  0  0  0  0  0  0
    3.2110    0.6540    0.1630 C   0  0  0  0  0  0  0  0  0  0  0  0
    2.1030    0.9500    0.9540 C   0  0  0  0  0  0  0  0  0  0  0  0
    1.1600    1.2180    1.6130 N   0  0  0  0  0  0  0  0  0  0  0  0
    3.2520   -0.1720   -0.8560 C   0  0  0  0  0  0  0  0  0  0  0  0
    4.4620   -0.3810   -1.5780 N   0  0  0  0  0  0  0  0  0  0  0  0
    4.6270   -1.2630   -2.6810 C   0  0  0  0  0  0  0  0  0  0  0  0
    5.6990   -1.4270   -3.2980 O   0  0  0  0  0  0  0  0  0  0  0  0
    3.4760   -2.0050   -3.1040 N   0  0  0  0  0  0  0  0  0  0  0  0
    2.2850   -1.8120   -2.4040 C   0  0  0  0  0  0  0  0  0  0  0  0
    1.2250   -2.4590   -2.7470 O   0  0  0  0  0  0  0  0  0  0  0  0
    2.1310   -0.9040   -1.2740 N   0  0  0  0  0  0  0  0  0  0  0  0
    0.8660   -0.8390   -0.6500 C   0  0  0  0  0  0  0  0  0  0  0  0
    0.5220   -1.5480    0.4440 N   0  0  0  0  0  0  0  0  0  0  0  0
   -0.7350   -1.5080    0.9380 C   0  0  0  0  0  0  0  0  0  0  0  0
   -1.1320   -2.2880    2.1330 C   0  0  0  0  0  0  0  0  0  0  0  0
   -1.5610   -3.6570    1.8210 C   0  0  0  0  0  0  0  0  0  0  0  0
   -0.8060   -4.4320    1.1690 O   0  0  0  0  0  0  0  0  0  0  0  0
   -2.8280   -4.1150    2.2540 N   0  0  0  0  0  0  0  0  0  0  0  0
   -3.7530   -3.2450    3.0030 C   0  0  0  0  0  0  0  0  0  0  0  0
   -5.0840   -3.9310    3.1230 C   0  0  0  0  0  0  0  0  0  0  0  0
   -5.3670   -4.4330    1.8390 O   0  0  0  0  0  0  0  0  0  0  0  0
   -4.6800   -5.6460    1.7720 C   0  0  0  0  0  0  0  0  0  0  0  0
   -3.2020   -5.4900    1.9450 C   0  0  0  0  0  0  0  0  0  0  0  0
   -1.6940   -0.7330    0.3250 C   0  0  0  0  0  0  0  0  0  0  0  0
   -1.4050   -0.0060   -0.7680 N   0  0  0  0  0  0  0  0  0  0  0  0
   -2.1390    0.7990   -1.5270 C   0  0  0  0  0  0  0  0  0  0  0  0
   -3.5610    1.1870   -1.5110 C   0  0  1  0  0  0  0  0  0  0  0  0
   -4.2540    0.4780   -2.7110 C   0  0  0  0  0  0  0  0  0  0  0  0
   -4.3180    1.0560   -0.2730 C   0  0  0  0  0  0  0  0  0  0  0  0
   -5.7530    1.5530   -0.2880 C   0  0  1  0  0  0  0  0  0  0  0  0
   -5.8660    3.0170   -0.6630 C   0  0  0  0  0  0  0  0  0  0  0  0
   -6.7330    0.7300   -1.0190 C   0  0  0  0  0  0  0  0  0  0  0  0
   -1.2730    1.2520   -2.5020 N   0  0  0  0  0  0  0  0  0  0  0  0
   -0.1030    0.7180   -2.2980 N   0  0  0  0  0  0  0  0  0  0  0  0
   -0.1220   -0.0700   -1.2410 C   0  0  0  0  0  0  0  0  0  0  0  0
    5.0070    1.0250    1.7740 C   0  0  0  0  0  0  0  0  0  0  0  0
    6.2540    1.5130    2.1190 C   0  0  0  0  0  0  0  0  0  0  0  0
    6.9630    2.3010    1.2350 C   0  0  0  0  0  0  0  0  0  0  0  0
    8.5490    2.8520    1.7790 Cl  0  0  0  0  0  0  0  0  0  0  0  0
  1  2  1  0
  2  3  1  0
  3  4  1  0
  4  5  2  0
  4 44  1  0
  5  6  1  0
  6  7  1  0
  6 42  2  0
  7  8  1  0
  7 10  2  3
  8  9  3  0
 10 11  1  0
 10 17  1  0
 11 12  1  0
 12 13  2  0
 12 14  1  0
 14 15  1  0
 15 16  2  0
 15 17  1  0
 17 18  1  0
 18 19  2  0
 18 41  1  0
 19 20  1  0
 20 21  1  0
 20 30  2  0
 21 22  1  0
 22 23  2  0
 22 24  1  0
 24 25  1  0
 24 29  1  0
 25 26  1  0
 26 27  1  0
 27 28  1  0
 28 29  1  0
 30 31  1  0
 31 32  1  0
 31 41  1  0
 32 33  1  0
 32 39  2  0
 33 34  1  6
 33 35  1  0
 35 36  1  0
 36 37  1  6
 36 38  1  0
 39 40  1  0
 40 41  2  0
 42 43  1  0
 43 44  2  0
 44 45  1  0
M  END
