
     RDKit          3D

 46 50  0  0  0  0  0  0  0  0999 V2000
   -8.5830    3.1800   -3.2310 C   0  0  0  0  0  0  0  0  0  0  0  0
   -7.6240    2.5710   -2.2000 C   0  0  1  0  0  0  0  0  0  0  0  0
   -8.3680    1.7260   -1.2520 C   0  0  0  0  0  0  0  0  0  0  0  0
   -8.4030    0.4180   -1.1980 C   0  0  0  0  0  0  0  0  0  0  0  0
   -7.7200   -0.5490   -2.0510 C   0  0  0  0  0  0  0  0  0  0  0  0
   -6.6520   -1.2470   -1.5930 O   0  0  0  0  0  0  0  0  0  0  0  0
   -6.1210   -1.8320   -0.5020 C   0  0  0  0  0  0  0  0  0  0  0  0
   -6.0940   -3.2370   -0.4130 C   0  0  0  0  0  0  0  0  0  0  0  0
   -5.5880   -3.9560    0.6380 C   0  0  0  0  0  0  0  0  0  0  0  0
   -5.0600   -3.2540    1.6930 C   0  0  0  0  0  0  0  0  0  0  0  0
   -5.0690   -1.8820    1.6360 C   0  0  0  0  0  0  0  0  0  0  0  0
   -5.5820   -1.1450    0.5740 C   0  0  0  0  0  0  0  0  0  0  0  0
   -5.4670    0.3130    0.7230 C   0  0  0  0  0  0  0  0  0  0  0  0
   -4.4770    0.9700   -0.0820 N   0  0  0  0  0  0  0  0  0  0  0  0
   -3.1340    0.5730   -0.0480 C   0  0  0  0  0  0  0  0  0  0  0  0
   -2.8690   -0.4460    0.7000 O   0  0  0  0  0  0  0  0  0  0  0  0
   -2.0430    1.2190   -0.7800 C   0  0  1  0  0  0  0  0  0  0  0  0
   -1.5350    2.5030   -0.1210 C   0  0  0  0  0  0  0  0  0  0  0  0
   -0.3030    2.7010   -1.0300 C   0  0  0  0  0  0  0  0  0  0  0  0
    0.1230    1.2310   -1.1400 C   0  0  1  0  0  0  0  0  0  0  0  0
    1.4690    1.0840   -0.4490 C   0  0  0  0  0  0  0  0  0  0  0  0
    1.9330   -0.3250   -0.5130 C   0  0  0  0  0  0  0  0  0  0  0  0
    3.2990   -0.4720    0.1760 C   0  0  0  0  0  0  0  0  0  0  0  0
    4.3430    0.3040   -0.4710 C   0  0  0  0  0  0  0  0  0  0  0  0
    3.9990    0.7740   -1.6540 O   0  0  0  0  0  0  0  0  0  0  0  0
    5.6310    0.6450   -0.0920 N   0  0  0  0  0  0  0  0  0  0  0  0
    6.3950    1.4740   -1.0790 C   0  0  0  0  0  0  0  0  0  0  0  0
    7.7010    0.7890   -1.3170 C   0  0  0  0  0  0  0  0  0  0  0  0
    7.7880   -0.5890   -0.7500 C   0  0  1  0  0  0  0  0  0  0  0  0
    6.8160   -1.5550   -1.3430 C   0  0  0  0  0  0  0  0  0  0  0  0
    9.1930   -1.1230   -1.0050 C   0  0  0  0  0  0  0  0  0  0  0  0
    7.6000   -0.5020    0.7600 C   0  0  1  0  0  0  0  0  0  0  0  0
    8.7730    0.1780    1.3240 N   0  0  0  0  0  0  0  0  0  0  0  0
    6.3800    0.3390    1.1010 C   0  0  2  0  0  0  0  0  0  0  0  0
    5.6170   -0.2660    2.2090 C   0  0  0  0  0  0  0  0  0  0  0  0
    6.4540   -0.5430    3.3820 N   0  0  0  0  0  0  0  0  0  0  0  0
    7.1180    0.4950    4.0710 C   0  0  0  0  0  0  0  0  0  0  0  0
    7.0370    1.7000    3.7380 O   0  0  0  0  0  0  0  0  0  0  0  0
   -0.8600    0.4490   -0.5880 O   0  0  0  0  0  0  0  0  0  0  0  0
   -4.9080    2.0490   -0.9330 C   0  0  0  0  0  0  0  0  0  0  0  0
   -5.3670    1.5940   -2.2810 C   0  0  0  0  0  0  0  0  0  0  0  0
   -4.6190    0.8150   -2.9180 O   0  0  0  0  0  0  0  0  0  0  0  0
   -6.5510    1.9800   -2.8480 O   0  0  0  0  0  0  0  0  0  0  0  0
   -4.5660   -4.2180    2.7300 C   0  0  0  0  0  0  0  0  0  0  0  0
   -5.4250   -5.4230    2.3960 C   0  0  0  0  0  0  0  0  0  0  0  0
   -5.4470   -5.2980    0.9610 O   0  0  0  0  0  0  0  0  0  0  0  0
  2  1  1  6
  2  3  1  0
  2 43  1  0
  3  4  2  0
  4  5  1  0
  5  6  1  0
  6  7  1  0
  7  8  2  0
  7 12  1  0
  8  9  1  0
  9 10  2  0
  9 46  1  0
 10 11  1  0
 10 44  1  0
 11 12  2  0
 12 13  1  0
 13 14  1  0
 14 15  1  0
 14 40  1  0
 15 16  2  0
 17 15  1  1
 17 18  1  0
 17 39  1  0
 18 19  1  0
 19 20  1  0
 20 21  1  1
 20 39  1  0
 21 22  1  0
 22 23  1  0
 23 24  1  0
 24 25  2  0
 24 26  1  0
 26 27  1  0
 26 34  1  0
 27 28  1  0
 28 29  1  0
 29 30  1  6
 29 31  1  0
 29 32  1  0
 32 33  1  1
 32 34  1  0
 34 35  1  1
 35 36  1  0
 36 37  1  0
 37 38  2  0
 40 41  1  0
 41 42  2  0
 41 43  1  0
 44 45  1  0
 45 46  1  0
M  CHG  1  33   1
M  END
