
     RDKit          3D

 43 46  0  0  0  0  0  0  0  0999 V2000
   -6.8470   -1.7030   -0.0320 O   0  0  0  0  0  0  0  0  0  0  0  0
   -7.3660   -0.6530   -0.4810 C   0  0  0  0  0  0  0  0  0  0  0  0
   -8.4700   -0.1580    0.1950 O   0  0  0  0  0  0  0  0  0  0  0  0
   -6.7870   -0.0210   -1.6720 C   0  0  0  0  0  0  0  0  0  0  0  0
   -5.5860   -0.6810   -2.2390 C   0  0  0  0  0  0  0  0  0  0  0  0
   -4.4050   -0.7510   -1.2940 C   0  0  0  0  0  0  0  0  0  0  0  0
   -3.2300   -1.4350   -1.9470 C   0  0  0  0  0  0  0  0  0  0  0  0
   -2.0990   -1.5740   -1.1980 O   0  0  0  0  0  0  0  0  0  0  0  0
   -1.7970   -2.2280   -0.0630 C   0  0  0  0  0  0  0  0  0  0  0  0
   -2.7260   -2.9850    0.6050 C   0  0  0  0  0  0  0  0  0  0  0  0
   -2.3990   -3.6560    1.7750 C   0  0  0  0  0  0  0  0  0  0  0  0
   -1.1280   -3.5540    2.2630 C   0  0  0  0  0  0  0  0  0  0  0  0
   -0.2030   -2.7910    1.5840 C   0  0  0  0  0  0  0  0  0  0  0  0
   -0.4820   -2.1120    0.4250 C   0  0  0  0  0  0  0  0  0  0  0  0
    0.5580   -1.3230   -0.2690 C   0  0  1  0  0  0  0  0  0  0  0  0
    1.1720   -2.0960   -1.3410 N   0  0  0  0  0  0  0  0  0  0  0  0
    2.8110   -2.4240   -1.1680 S   0  0  1  0  0  0  0  0  0  0  0  0
    3.1590   -3.2290    0.0390 O   0  0  0  0  0  0  0  0  0  0  0  0
    3.2650   -3.1740   -2.4130 O   0  0  0  0  0  0  0  0  0  0  0  0
    3.7640   -0.9560   -1.1210 C   0  0  0  0  0  0  0  0  0  0  0  0
    4.2420   -0.3650   -2.2740 C   0  0  0  0  0  0  0  0  0  0  0  0
    4.9830    0.7800   -2.1420 C   0  0  0  0  0  0  0  0  0  0  0  0
    5.2640    1.3530   -0.9250 C   0  0  0  0  0  0  0  0  0  0  0  0
    5.9920    2.4750   -0.8270 N   0  0  0  0  0  0  0  0  0  0  0  0
    6.2490    3.0080    0.3730 C   0  0  0  0  0  0  0  0  0  0  0  0
    6.9380    4.0630    0.4200 O   0  0  0  0  0  0  0  0  0  0  0  0
    5.7950    2.4550    1.5460 C   0  0  0  0  0  0  0  0  0  0  0  0
    5.0500    1.3090    1.4600 C   0  0  0  0  0  0  0  0  0  0  0  0
    4.7890    0.7670    0.2280 C   0  0  0  0  0  0  0  0  0  0  0  0
    4.0390   -0.3910    0.1060 C   0  0  0  0  0  0  0  0  0  0  0  0
    0.1130   -0.0060   -0.7580 C   0  0  0  0  0  0  0  0  0  0  0  0
    0.3090    0.1680   -2.0230 O   0  0  0  0  0  0  0  0  0  0  0  0
   -0.4770    1.0420   -0.0280 N   0  0  0  0  0  0  0  0  0  0  0  0
   -0.8450    2.2620   -0.7910 C   0  0  0  0  0  0  0  0  0  0  0  0
    0.3080    3.1690   -0.8180 C   0  0  0  0  0  0  0  0  0  0  0  0
    1.4410    2.9000   -0.3410 O   0  0  0  0  0  0  0  0  0  0  0  0
    0.1530    4.4190   -1.4100 O   0  0  0  0  0  0  0  0  0  0  0  0
   -0.7300    0.9750    1.3540 C   0  0  0  0  0  0  0  0  0  0  0  0
    0.3000    1.4400    2.2740 C   0  0  0  0  0  0  0  0  0  0  0  0
    1.2330    0.6170    2.8950 C   0  0  0  0  0  0  0  0  0  0  0  0
    2.1240    1.1560    3.7220 C   0  0  0  0  0  0  0  0  0  0  0  0
    2.0670    2.5610    3.9250 C   0  0  0  0  0  0  0  0  0  0  0  0
    0.7070    2.9890    2.8840 S   0  0  0  0  0  0  0  0  0  0  0  0
  1  2  2  0
  2  3  1  0
  2  4  1  0
  4  5  1  0
  5  6  1  0
  6  7  1  0
  7  8  1  0
  8  9  1  0
  9 10  2  0
  9 14  1  0
 10 11  1  0
 11 12  2  0
 12 13  1  0
 13 14  2  0
 14 15  1  0
 15 16  1  6
 15 31  1  0
 17 16  1  6
 17 18  2  0
 17 19  2  0
 17 20  1  0
 20 21  2  0
 20 30  1  0
 21 22  1  0
 22 23  2  0
 23 24  1  0
 23 29  1  0
 24 25  1  0
 25 26  2  0
 25 27  1  0
 27 28  2  0
 28 29  1  0
 29 30  2  0
 31 32  2  0
 31 33  1  0
 33 34  1  0
 33 38  1  0
 34 35  1  0
 35 36  2  0
 35 37  1  0
 38 39  1  0
 39 40  2  0
 39 43  1  0
 40 41  1  0
 41 42  2  0
 42 43  1  0
M  END
