
     RDKit          3D

 46 49  0  0  0  0  0  0  0  0999 V2000
   -4.4020    4.9920   -5.4480 C   0  0  0  0  0  0  0  0  0  0  0  0
   -4.0480    4.3970   -4.1100 C   0  0  0  0  0  0  0  0  0  0  0  0
   -4.1370    3.0590   -3.8510 C   0  0  0  0  0  0  0  0  0  0  0  0
   -3.7980    2.5590   -2.6020 C   0  0  0  0  0  0  0  0  0  0  0  0
   -3.3680    3.3870   -1.6010 C   0  0  0  0  0  0  0  0  0  0  0  0
   -3.0290    2.8960   -0.2380 C   0  0  0  0  0  0  0  0  0  0  0  0
   -3.1850    1.6170    0.0340 C   0  0  0  0  0  0  0  0  0  0  0  0
   -2.8760    1.0160    1.3860 C   0  0  1  0  0  0  0  0  0  0  0  0
   -3.8540   -0.1150    1.6350 C   0  0  0  0  0  0  0  0  0  0  0  0
   -4.7230   -0.0960    2.5120 O   0  0  0  0  0  0  0  0  0  0  0  0
   -3.7160   -1.2460    0.7740 N   0  0  0  0  0  0  0  0  0  0  0  0
   -4.5880   -2.4160    0.8920 C   0  0  2  0  0  0  0  0  0  0  0  0
   -3.8850   -3.5200    1.6620 C   0  0  0  0  0  0  0  0  0  0  0  0
   -4.9780   -4.3340    2.3400 C   0  0  0  0  0  0  0  0  0  0  0  0
   -5.9830   -4.7810    1.3020 C   0  0  0  0  0  0  0  0  0  0  0  0
   -5.3090   -5.3160    0.0640 C   0  0  0  0  0  0  0  0  0  0  0  0
   -4.7650   -4.2580   -0.8270 C   0  0  0  0  0  0  0  0  0  0  0  0
   -5.1020   -2.8430   -0.4260 C   0  0  0  0  0  0  0  0  0  0  0  0
   -1.5210    0.3560    1.3950 C   0  0  0  0  0  0  0  0  0  0  0  0
   -0.7420    0.6900    2.6150 C   0  0  0  0  0  0  0  0  0  0  0  0
   -1.4450    0.9650    3.6520 O   0  0  0  0  0  0  0  0  0  0  0  0
    0.6500    0.7260    2.7120 N   0  0  0  0  0  0  0  0  0  0  0  0
    1.5220    1.1470    1.6120 C   0  0  2  0  0  0  0  0  0  0  0  0
    2.6480    0.1640    1.5330 C   0  0  0  0  0  0  0  0  0  0  0  0
    3.6380    0.4630    0.4330 C   0  0  0  0  0  0  0  0  0  0  0  0
    4.6710   -0.6070    0.4290 C   0  0  0  0  0  0  0  0  0  0  0  0
    4.6320   -1.5410    1.2700 O   0  0  0  0  0  0  0  0  0  0  0  0
    5.7280   -0.6630   -0.4740 O   0  0  0  0  0  0  0  0  0  0  0  0
    6.6760   -1.7130   -0.4310 C   0  0  1  0  0  0  0  0  0  0  0  0
    6.5310   -2.5140   -1.7220 C   0  0  0  0  0  0  0  0  0  0  0  0
    8.0690   -1.2480   -0.2740 C   0  0  0  0  0  0  0  0  0  0  0  0
    8.5440   -0.2150   -1.0230 C   0  0  0  0  0  0  0  0  0  0  0  0
    9.8570    0.1950   -0.8540 C   0  0  0  0  0  0  0  0  0  0  0  0
   10.6610   -0.4160    0.0390 N   0  0  0  0  0  0  0  0  0  0  0  0
   10.1770   -1.4400    0.7760 C   0  0  0  0  0  0  0  0  0  0  0  0
   11.0190   -2.0520    1.6850 O   0  0  0  0  0  0  0  0  0  0  0  0
    8.8760   -1.8800    0.6390 C   0  0  0  0  0  0  0  0  0  0  0  0
    1.9250    2.5290    1.9360 C   0  0  0  0  0  0  0  0  0  0  0  0
    3.0800    2.8330    2.2860 O   0  0  0  0  0  0  0  0  0  0  0  0
    0.9770    3.5660    1.8540 O   0  0  0  0  0  0  0  0  0  0  0  0
    0.0130    3.6820    0.8540 C   0  0  0  0  0  0  0  0  0  0  0  0
   -1.3560    3.8220    1.4510 C   0  0  0  0  0  0  0  0  0  0  0  0
   -1.4760    3.9100    2.7220 O   0  0  0  0  0  0  0  0  0  0  0  0
   -2.5560    3.8680    0.6970 N   0  0  0  0  0  0  0  0  0  0  0  0
   -3.2930    4.7330   -1.9110 C   0  0  0  0  0  0  0  0  0  0  0  0
   -3.6170    5.2750   -3.1310 C   0  0  0  0  0  0  0  0  0  0  0  0
  1  2  1  0
  2  3  2  0
  2 46  1  0
  3  4  1  0
  4  5  2  0
  5  6  1  0
  5 45  1  0
  6  7  2  0
  6 44  1  0
  7  8  1  0
  8  9  1  6
  8 19  1  0
  9 10  2  0
  9 11  1  0
 12 11  1  6
 12 13  1  0
 12 18  1  0
 13 14  1  0
 14 15  1  0
 15 16  1  0
 16 17  1  0
 17 18  1  0
 19 20  1  0
 20 21  2  0
 20 22  1  0
 22 23  1  0
 23 24  1  1
 23 38  1  0
 24 25  1  0
 25 26  1  0
 26 27  2  0
 26 28  1  0
 28 29  1  0
 29 30  1  6
 29 31  1  0
 31 32  2  0
 31 37  1  0
 32 33  1  0
 33 34  2  0
 34 35  1  0
 35 36  1  0
 35 37  2  0
 38 39  2  0
 38 40  1  0
 40 41  1  0
 41 42  1  0
 42 43  2  0
 42 44  1  0
 45 46  2  0
M  CHG  1  34   1
M  END
