
     RDKit          3D

 46 49  0  0  0  0  0  0  0  0999 V2000
    7.8780    1.7400    0.8180 C   0  0  0  0  0  0  0  0  0  0  0  0
    6.5120    1.6220    0.5850 O   0  0  0  0  0  0  0  0  0  0  0  0
    5.8430    1.1420    1.7170 C   0  0  0  0  0  0  0  0  0  0  0  0
    4.3530    1.0150    1.4580 C   0  0  2  0  0  0  0  0  0  0  0  0
    3.8010    0.5300    2.6570 O   0  0  0  0  0  0  0  0  0  0  0  0
    4.2170    0.0610    0.3180 C   0  0  0  0  0  0  0  0  0  0  0  0
    2.8540   -0.3210   -0.0700 N   0  0  0  0  0  0  0  0  0  0  0  0
    2.2530   -1.4520    0.5640 C   0  0  0  0  0  0  0  0  0  0  0  0
    2.3170   -1.4750    1.8230 O   0  0  0  0  0  0  0  0  0  0  0  0
    1.5650   -2.5970   -0.1070 C   0  0  1  0  0  0  0  0  0  0  0  0
    2.6250   -3.4780   -0.8260 C   0  0  0  0  0  0  0  0  0  0  0  0
    0.9790   -3.4840    0.7850 O   0  0  0  0  0  0  0  0  0  0  0  0
   -0.2790   -4.1150    0.6270 C   0  0  0  0  0  0  0  0  0  0  0  0
   -0.3510   -5.3330    0.8050 O   0  0  0  0  0  0  0  0  0  0  0  0
   -1.3330   -3.2490    0.2740 C   0  0  0  0  0  0  0  0  0  0  0  0
   -2.6250   -3.4750   -0.1230 N   0  0  0  0  0  0  0  0  0  0  0  0
   -3.4790   -4.1570    0.7990 C   0  0  0  0  0  0  0  0  0  0  0  0
   -3.2150   -2.4820   -0.9340 C   0  0  2  0  0  0  0  0  0  0  0  0
   -4.7260   -2.8600   -0.9220 C   0  0  0  0  0  0  0  0  0  0  0  0
   -2.8310   -2.8870   -2.3800 C   0  0  0  0  0  0  0  0  0  0  0  0
   -3.3500   -4.1920   -2.6690 N   0  0  0  0  0  0  0  0  0  0  0  0
   -3.0860   -1.0790   -0.8580 C   0  0  0  0  0  0  0  0  0  0  0  0
   -4.0940   -0.5380   -1.5310 O   0  0  0  0  0  0  0  0  0  0  0  0
   -2.2620   -0.0490   -0.3160 N   0  0  0  0  0  0  0  0  0  0  0  0
   -3.0220    0.9820    0.3670 C   0  0  0  0  0  0  0  0  0  0  0  0
   -3.1320    1.0520    1.7340 C   0  0  0  0  0  0  0  0  0  0  0  0
   -3.8770    2.0270    2.3670 C   0  0  0  0  0  0  0  0  0  0  0  0
   -4.5450    2.9790    1.6200 C   0  0  0  0  0  0  0  0  0  0  0  0
   -5.3420    4.0250    2.2280 C   0  0  0  0  0  0  0  0  0  0  0  0
   -5.4380    4.0820    3.4680 O   0  0  0  0  0  0  0  0  0  0  0  0
   -4.4470    2.9250    0.2580 C   0  0  0  0  0  0  0  0  0  0  0  0
   -3.6860    1.9270   -0.3680 C   0  0  0  0  0  0  0  0  0  0  0  0
   -3.6650    1.9820   -1.7450 O   0  0  0  0  0  0  0  0  0  0  0  0
   -0.8640    0.0880   -0.3510 C   0  0  0  0  0  0  0  0  0  0  0  0
   -0.0380    1.2560   -0.2410 C   0  0  1  0  0  0  0  0  0  0  0  0
   -0.5950    2.6160   -0.3440 C   0  0  0  0  0  0  0  0  0  0  0  0
    0.5610    3.5940   -0.1900 C   0  0  0  0  0  0  0  0  0  0  0  0
    0.8040    3.7230    1.3230 C   0  0  0  0  0  0  0  0  0  0  0  0
    0.2830    2.4880    1.9740 C   0  0  0  0  0  0  0  0  0  0  0  0
    0.6610    1.2870    1.1350 C   0  0  0  0  0  0  0  0  0  0  0  0
    1.1010    1.1300   -1.2400 C   0  0  0  0  0  0  0  0  0  0  0  0
    0.8100    1.8040   -2.4370 C   0  0  0  0  0  0  0  0  0  0  0  0
    1.6570    1.8650   -3.5180 C   0  0  0  0  0  0  0  0  0  0  0  0
    2.8530    1.2220   -3.4000 C   0  0  0  0  0  0  0  0  0  0  0  0
    3.1390    0.5630   -2.2380 C   0  0  0  0  0  0  0  0  0  0  0  0
    2.2790    0.4880   -1.1150 C   0  0  0  0  0  0  0  0  0  0  0  0
  1  2  1  0
  2  3  1  0
  3  4  1  0
  4  5  1  1
  4  6  1  0
  6  7  1  0
  7  8  1  0
  7 46  1  0
  8  9  2  0
  8 10  1  0
 10 11  1  1
 10 12  1  0
 12 13  1  0
 13 14  2  0
 13 15  1  0
 15 16  1  0
 16 17  1  0
 16 18  1  0
 18 19  1  6
 18 20  1  0
 18 22  1  0
 20 21  1  0
 22 23  2  0
 22 24  1  0
 24 25  1  0
 24 34  1  0
 25 26  2  0
 25 32  1  0
 26 27  1  0
 27 28  2  0
 28 29  1  0
 28 31  1  0
 29 30  2  0
 31 32  2  0
 32 33  1  0
 35 34  1  1
 35 36  1  0
 35 40  1  0
 35 41  1  0
 36 37  1  0
 37 38  1  0
 38 39  1  0
 39 40  1  0
 41 42  2  0
 41 46  1  0
 42 43  1  0
 43 44  2  0
 44 45  1  0
 45 46  2  0
M  CHG  1  21   1
M  END
