
     RDKit          3D

 37 40  0  0  0  0  0  0  0  0999 V2000
    5.7620   -0.1900   -0.2430 O   0  0  0  0  0  0  0  0  0  0  0  0
    6.1000   -1.2230    0.3700 C   0  0  0  0  0  0  0  0  0  0  0  0
    5.8890   -2.5030   -0.1540 N   0  0  0  0  0  0  0  0  0  0  0  0
    5.2730   -2.8800   -1.3640 C   0  0  0  0  0  0  0  0  0  0  0  0
    3.8610   -2.6310   -1.6260 C   0  0  0  0  0  0  0  0  0  0  0  0
    3.3250   -1.3200   -1.7250 N   0  0  0  0  0  0  0  0  0  0  0  0
    1.8680   -1.2940   -1.9520 C   0  0  0  0  0  0  0  0  0  0  0  0
    1.2530   -2.3700   -2.0350 O   0  0  0  0  0  0  0  0  0  0  0  0
    1.2020   -0.0690   -2.0700 N   0  0  0  0  0  0  0  0  0  0  0  0
   -0.1940    0.0950   -2.2750 C   0  0  0  0  0  0  0  0  0  0  0  0
   -0.6800    1.3560   -2.6530 C   0  0  0  0  0  0  0  0  0  0  0  0
   -2.0150    1.5570   -2.8420 C   0  0  0  0  0  0  0  0  0  0  0  0
   -2.9290    0.5590   -2.6750 C   0  0  0  0  0  0  0  0  0  0  0  0
   -4.3190    0.7880   -2.8320 N   0  0  0  0  0  0  0  0  0  0  0  0
   -5.1300    0.4980   -1.7510 C   0  0  0  0  0  0  0  0  0  0  0  0
   -4.6400    0.0390   -0.6540 O   0  0  0  0  0  0  0  0  0  0  0  0
   -6.5120    0.6470   -1.6880 N   0  0  0  0  0  0  0  0  0  0  0  0
   -7.2020    0.3810   -0.4890 C   0  0  0  0  0  0  0  0  0  0  0  0
   -8.3270   -0.0610   -0.4400 N   0  0  0  0  0  0  0  0  0  0  0  0
   -8.7550   -0.2610    0.8700 N   0  0  0  0  0  0  0  0  0  0  0  0
   -7.8370    0.4160    1.7380 C   0  0  2  0  0  0  0  0  0  0  0  0
   -8.6980    1.3150    2.6470 C   0  0  0  0  0  0  0  0  0  0  0  0
  -10.0620    0.2040    2.9480 S   0  0  2  0  0  0  0  0  0  0  0  0
  -11.3820    0.8850    2.7820 O   0  0  0  0  0  0  0  0  0  0  0  0
   -9.9170   -0.4760    4.2730 O   0  0  0  0  0  0  0  0  0  0  0  0
   -9.7710   -0.9500    1.5960 C   0  0  1  0  0  0  0  0  0  0  0  0
  -11.2510   -1.0810    0.5960 S   0  0  0  0  0  0  0  0  0  0  0  0
   -7.1060    1.1640    0.8030 N   0  0  0  0  0  0  0  0  0  0  0  0
   -2.4750   -0.6770   -2.3080 C   0  0  0  0  0  0  0  0  0  0  0  0
   -1.1080   -0.8890   -2.1130 C   0  0  0  0  0  0  0  0  0  0  0  0
    6.7170   -1.0370    1.6410 N   0  0  0  0  0  0  0  0  0  0  0  0
    6.9680    0.2440    2.2450 C   0  0  0  0  0  0  0  0  0  0  0  0
    7.8630    1.1510    1.4550 C   0  0  1  0  0  0  0  0  0  0  0  0
    9.2730    0.6340    1.1350 C   0  0  0  0  0  0  0  0  0  0  0  0
    9.9110    1.6310    0.4050 O   0  0  0  0  0  0  0  0  0  0  0  0
    7.2500    2.1960    0.5880 C   0  0  0  0  0  0  0  0  0  0  0  0
    7.8910    2.6310    1.9140 C   0  0  0  0  0  0  0  0  0  0  0  0
  1  2  2  0
  2  3  1  0
  2 31  1  0
  3  4  1  0
  4  5  1  0
  5  6  1  0
  6  7  1  0
  7  8  2  0
  7  9  1  0
  9 10  1  0
 10 11  2  0
 10 30  1  0
 11 12  1  0
 12 13  2  0
 13 14  1  0
 13 29  1  0
 14 15  1  0
 15 16  2  0
 15 17  1  0
 17 18  1  0
 18 19  2  0
 18 28  1  0
 19 20  1  0
 20 21  1  0
 20 26  1  0
 21 22  1  1
 21 28  1  0
 23 22  1  1
 23 24  2  0
 23 25  2  0
 23 26  1  0
 26 27  1  6
 29 30  2  0
 31 32  1  0
 33 32  1  1
 33 34  1  0
 33 36  1  0
 33 37  1  0
 34 35  1  0
 36 37  1  0
M  END
