
     RDKit          3D

 35 39  0  0  0  0  0  0  0  0999 V2000
   -3.1740   -1.5310   -3.8840 C   0  0  0  0  0  0  0  0  0  0  0  0
   -2.5920   -0.9980   -2.7120 O   0  0  0  0  0  0  0  0  0  0  0  0
   -2.9410   -1.5690   -1.4960 C   0  0  0  0  0  0  0  0  0  0  0  0
   -3.8230   -2.6210   -1.4090 C   0  0  0  0  0  0  0  0  0  0  0  0
   -4.1980   -3.2190   -0.2250 C   0  0  0  0  0  0  0  0  0  0  0  0
   -3.6710   -2.7520    0.9570 C   0  0  0  0  0  0  0  0  0  0  0  0
   -2.7710   -1.6820    0.8880 C   0  0  0  0  0  0  0  0  0  0  0  0
   -2.4040   -1.0930   -0.2920 C   0  0  0  0  0  0  0  0  0  0  0  0
   -1.4390    0.0120   -0.4260 C   0  0  0  0  0  0  0  0  0  0  0  0
   -0.9000    0.5870    0.7280 N   0  0  0  0  0  0  0  0  0  0  0  0
   -1.7510    1.4020    1.5030 C   0  0  0  0  0  0  0  0  0  0  0  0
   -2.2730    2.5850    0.7650 C   0  0  0  0  0  0  0  0  0  0  0  0
   -3.4480    2.4620    0.0700 C   0  0  0  0  0  0  0  0  0  0  0  0
   -4.0080    3.5080   -0.6420 C   0  0  0  0  0  0  0  0  0  0  0  0
   -3.3530    4.7270   -0.6510 C   0  0  0  0  0  0  0  0  0  0  0  0
   -3.9210    5.8780   -1.4050 C   0  0  0  0  0  0  0  0  0  0  0  0
   -2.1630    4.8840    0.0420 C   0  0  0  0  0  0  0  0  0  0  0  0
   -1.6280    3.7990    0.7520 C   0  0  0  0  0  0  0  0  0  0  0  0
    0.4340    1.0350    0.7180 C   0  0  0  0  0  0  0  0  0  0  0  0
    1.4860    0.0180    0.5630 C   0  0  0  0  0  0  0  0  0  0  0  0
    1.2980   -1.3330    0.4730 C   0  0  0  0  0  0  0  0  0  0  0  0
    2.3740   -2.1300    0.3500 N   0  0  0  0  0  0  0  0  0  0  0  0
    3.6450   -1.6950    0.3090 C   0  0  0  0  0  0  0  0  0  0  0  0
    3.8290   -0.3680    0.3990 N   0  0  0  0  0  0  0  0  0  0  0  0
    2.8050    0.4960    0.5230 C   0  0  0  0  0  0  0  0  0  0  0  0
    3.0700    1.7200    0.6000 O   0  0  0  0  0  0  0  0  0  0  0  0
    5.1130    0.2970    0.3740 C   0  0  0  0  0  0  0  0  0  0  0  0
    6.2560   -0.6470    0.1890 C   0  0  1  0  0  0  0  0  0  0  0  0
    7.5240    0.1520    0.0400 C   0  0  0  0  0  0  0  0  0  0  0  0
    6.2970   -1.4950    1.3820 N   0  0  0  0  0  0  0  0  0  0  0  0
    5.7920   -2.7700    1.0170 C   0  0  0  0  0  0  0  0  0  0  0  0
    4.5730   -2.7910    0.1720 C   0  0  0  0  0  0  0  0  0  0  0  0
   -4.2000   -3.5110    1.9900 O   0  0  0  0  0  0  0  0  0  0  0  0
   -5.3370   -4.2310    1.5160 C   0  0  0  0  0  0  0  0  0  0  0  0
   -5.0470   -4.2660    0.1220 O   0  0  0  0  0  0  0  0  0  0  0  0
  1  2  1  0
  2  3  1  0
  3  4  2  0
  3  8  1  0
  4  5  1  0
  5  6  2  0
  5 35  1  0
  6  7  1  0
  6 33  1  0
  7  8  2  0
  8  9  1  0
  9 10  1  0
 10 11  1  0
 10 19  1  0
 11 12  1  0
 12 13  2  0
 12 18  1  0
 13 14  1  0
 14 15  2  0
 15 16  1  0
 15 17  1  0
 17 18  2  0
 19 20  1  0
 20 21  2  0
 20 25  1  0
 21 22  1  0
 22 23  2  0
 23 24  1  0
 23 32  1  0
 24 25  1  0
 24 27  1  0
 25 26  2  0
 27 28  1  0
 28 29  1  1
 28 30  1  0
 30 31  1  0
 31 32  1  0
 33 34  1  0
 34 35  1  0
M  END
