
     RDKit          3D

 36 40  0  0  0  0  0  0  0  0999 V2000
   -6.3940    0.9960   -0.6800 C   0  0  0  0  0  0  0  0  0  0  0  0
   -5.1430    0.4970   -1.3680 C   0  0  0  0  0  0  0  0  0  0  0  0
   -4.1380    0.0010   -0.3930 C   0  0  0  0  0  0  0  0  0  0  0  0
   -3.0620    0.7410   -0.0800 N   0  0  0  0  0  0  0  0  0  0  0  0
   -2.1380    0.3070    0.8150 C   0  0  0  0  0  0  0  0  0  0  0  0
   -0.9710    1.1150    1.1870 C   0  0  0  0  0  0  0  0  0  0  0  0
   -0.2390    1.6450    0.0660 N   0  0  0  0  0  0  0  0  0  0  0  0
    0.9780    1.1070   -0.3500 C   0  0  0  0  0  0  0  0  0  0  0  0
    1.5700    1.6100   -1.3680 O   0  0  0  0  0  0  0  0  0  0  0  0
    1.6340   -0.0170    0.3160 C   0  0  1  0  0  0  0  0  0  0  0  0
    1.0960   -1.3490   -0.1320 C   0  0  0  0  0  0  0  0  0  0  0  0
    2.2300   -2.2660    0.2020 C   0  0  0  0  0  0  0  0  0  0  0  0
    2.1020   -3.4820    0.4710 O   0  0  0  0  0  0  0  0  0  0  0  0
    3.4140   -1.4950    0.1470 N   0  0  0  0  0  0  0  0  0  0  0  0
    4.7630   -2.0210    0.2780 C   0  0  2  0  0  0  0  0  0  0  0  0
    5.3750   -1.4920    1.5850 C   0  0  0  0  0  0  0  0  0  0  0  0
    6.8600   -1.6480    1.5960 C   0  0  0  0  0  0  0  0  0  0  0  0
    7.3790   -2.6030    0.5670 C   0  0  0  0  0  0  0  0  0  0  0  0
    6.9820   -2.1710   -0.8100 C   0  0  0  0  0  0  0  0  0  0  0  0
    5.5940   -1.5850   -0.8840 C   0  0  0  0  0  0  0  0  0  0  0  0
    3.1040   -0.1070   -0.0710 C   0  0  0  0  0  0  0  0  0  0  0  0
   -0.7580    2.7470   -0.6910 C   0  0  0  0  0  0  0  0  0  0  0  0
   -0.7050    4.0430   -0.2540 C   0  0  0  0  0  0  0  0  0  0  0  0
   -1.2420    5.0740   -1.0470 C   0  0  0  0  0  0  0  0  0  0  0  0
   -1.1900    6.4740   -0.5780 C   0  0  0  0  0  0  0  0  0  0  0  0
   -1.8050    4.7890   -2.2310 N   0  0  0  0  0  0  0  0  0  0  0  0
   -1.8730    3.5210   -2.6880 C   0  0  0  0  0  0  0  0  0  0  0  0
   -2.4130    3.3150   -3.8020 O   0  0  0  0  0  0  0  0  0  0  0  0
   -1.3400    2.4850   -1.9060 C   0  0  0  0  0  0  0  0  0  0  0  0
   -2.3490   -0.9150    1.3830 C   0  0  0  0  0  0  0  0  0  0  0  0
   -3.4480   -1.7040    1.0830 C   0  0  0  0  0  0  0  0  0  0  0  0
   -4.3600   -1.2380    0.1780 C   0  0  0  0  0  0  0  0  0  0  0  0
   -5.5400   -2.0690   -0.1530 C   0  0  0  0  0  0  0  0  0  0  0  0
   -5.2230   -3.4020    0.0990 O   0  0  0  0  0  0  0  0  0  0  0  0
   -4.9880   -3.5750    1.4630 C   0  0  0  0  0  0  0  0  0  0  0  0
   -3.6080   -3.0310    1.7440 C   0  0  0  0  0  0  0  0  0  0  0  0
  1  2  1  0
  2  3  1  0
  3  4  2  0
  3 32  1  0
  4  5  1  0
  5  6  1  0
  5 30  2  0
  6  7  1  0
  7  8  1  0
  7 22  1  0
  8  9  2  0
 10  8  1  6
 10 11  1  0
 10 21  1  0
 11 12  1  0
 12 13  2  0
 12 14  1  0
 15 14  1  6
 14 21  1  0
 15 16  1  0
 15 20  1  0
 16 17  1  0
 17 18  1  0
 18 19  1  0
 19 20  1  0
 22 23  1  0
 22 29  2  0
 23 24  2  0
 24 25  1  0
 24 26  1  0
 26 27  1  0
 27 28  2  0
 27 29  1  0
 30 31  1  0
 31 32  2  0
 31 36  1  0
 32 33  1  0
 33 34  1  0
 34 35  1  0
 35 36  1  0
M  END
