
     RDKit          3D

 37 39  0  0  0  0  0  0  0  0999 V2000
   -6.7390    0.4320    1.0840 C   0  0  0  0  0  0  0  0  0  0  0  0
   -7.5850   -0.1490   -0.0250 C   0  0  0  0  0  0  0  0  0  0  0  0
   -7.7170    0.7770   -1.1930 C   0  0  1  0  0  0  0  0  0  0  0  0
   -8.3460    2.0140   -0.6960 N   0  0  0  0  0  0  0  0  0  0  0  0
   -8.2440    3.2840   -1.9290 S   0  0  0  0  0  0  0  0  0  0  0  0
   -7.8250    2.4810   -3.4440 N   0  0  0  0  0  0  0  0  0  0  0  0
   -6.9000    1.4020   -3.3620 C   0  0  0  0  0  0  0  0  0  0  0  0
   -6.4730    0.7930   -4.3700 O   0  0  0  0  0  0  0  0  0  0  0  0
   -6.4760    1.0550   -1.9550 C   0  0  2  0  0  0  0  0  0  0  0  0
   -5.4890    0.0270   -1.9380 N   0  0  0  0  0  0  0  0  0  0  0  0
   -4.1400    0.3780   -1.5880 C   0  0  0  0  0  0  0  0  0  0  0  0
   -3.8910    1.5620   -1.3210 O   0  0  0  0  0  0  0  0  0  0  0  0
   -3.1080   -0.5960   -1.5440 N   0  0  0  0  0  0  0  0  0  0  0  0
   -1.7580   -0.3820   -1.2290 C   0  0  0  0  0  0  0  0  0  0  0  0
   -1.2070    0.8500   -0.9860 C   0  0  0  0  0  0  0  0  0  0  0  0
    0.1660    0.9710   -0.6910 C   0  0  0  0  0  0  0  0  0  0  0  0
    0.9790   -0.1280   -0.6390 C   0  0  0  0  0  0  0  0  0  0  0  0
    2.3560   -0.0690   -0.3700 N   0  0  0  0  0  0  0  0  0  0  0  0
    3.1600    1.0830   -0.3810 C   0  0  0  0  0  0  0  0  0  0  0  0
    2.7000    2.2110   -0.6470 O   0  0  0  0  0  0  0  0  0  0  0  0
    4.6240    1.0370   -0.0740 C   0  0  0  0  0  0  0  0  0  0  0  0
    5.0420   -0.3080    0.2540 N   0  0  0  0  0  0  0  0  0  0  0  0
    5.0590   -0.8190    1.4810 C   0  0  0  0  0  0  0  0  0  0  0  0
    4.6310   -0.0760    3.0640 S   0  0  0  0  0  0  0  0  0  0  0  0
    6.0990    0.6740    3.8120 C   0  0  2  0  0  0  0  0  0  0  0  0
    6.5840    1.8470    2.9940 C   0  0  0  0  0  0  0  0  0  0  0  0
    7.1440   -0.3600    3.9310 C   0  0  0  0  0  0  0  0  0  0  0  0
    7.6190   -1.0080    2.7730 N   0  0  0  0  0  0  0  0  0  0  0  0
    7.6120   -0.6650    5.0440 O   0  0  0  0  0  0  0  0  0  0  0  0
    5.4970   -2.1080    1.3640 N   0  0  0  0  0  0  0  0  0  0  0  0
    5.7340   -2.3520    0.0910 N   0  0  0  0  0  0  0  0  0  0  0  0
    6.2150   -3.6030   -0.4880 C   0  0  0  0  0  0  0  0  0  0  0  0
    5.4600   -1.2490   -0.6220 C   0  0  0  0  0  0  0  0  0  0  0  0
    5.5850   -1.1590   -1.8760 O   0  0  0  0  0  0  0  0  0  0  0  0
    0.4310   -1.3850   -0.8830 C   0  0  0  0  0  0  0  0  0  0  0  0
   -0.9030   -1.4940   -1.1690 C   0  0  0  0  0  0  0  0  0  0  0  0
   -1.4770   -2.7430   -1.4180 O   0  0  0  0  0  0  0  0  0  0  0  0
  1  2  1  0
  3  2  1  1
  3  4  1  0
  3  9  1  0
  4  5  1  0
  5  6  1  0
  6  7  1  0
  7  8  2  0
  7  9  1  0
  9 10  1  6
 10 11  1  0
 11 12  2  0
 11 13  1  0
 13 14  1  0
 14 15  2  0
 14 36  1  0
 15 16  1  0
 16 17  2  0
 17 18  1  0
 17 35  1  0
 18 19  1  0
 19 20  2  0
 19 21  1  0
 21 22  1  0
 22 23  1  0
 22 33  1  0
 23 24  1  0
 23 30  2  0
 24 25  1  0
 25 26  1  6
 25 27  1  0
 27 28  1  0
 27 29  2  0
 30 31  1  0
 31 32  1  0
 31 33  1  0
 33 34  2  0
 35 36  2  0
 36 37  1  0
M  END
