
     RDKit          3D

 37 40  0  0  0  0  0  0  0  0999 V2000
   -2.0430    7.5290   -0.3720 C   0  0  0  0  0  0  0  0  0  0  0  0
   -1.4700    6.6590    0.6290 N   0  0  0  0  0  0  0  0  0  0  0  0
   -1.7890    5.2630    0.6720 C   0  0  0  0  0  0  0  0  0  0  0  0
   -2.5670    4.7450   -0.1420 O   0  0  0  0  0  0  0  0  0  0  0  0
   -1.2150    4.4220    1.6650 N   0  0  0  0  0  0  0  0  0  0  0  0
   -1.4820    3.0480    1.7700 N   0  0  0  0  0  0  0  0  0  0  0  0
   -1.2740    2.2110    0.6450 C   0  0  0  0  0  0  0  0  0  0  0  0
   -0.8560    2.7430   -0.4090 O   0  0  0  0  0  0  0  0  0  0  0  0
   -1.5490    0.7270    0.7200 C   0  0  0  0  0  0  0  0  0  0  0  0
   -1.2920    0.0860   -0.6190 C   0  0  1  0  0  0  0  0  0  0  0  0
    0.4000    0.3470   -1.0760 S   0  0  0  0  0  0  0  0  0  0  0  0
    1.6240   -0.4810   -0.1440 C   0  0  0  0  0  0  0  0  0  0  0  0
    1.3400   -1.3640    0.8680 C   0  0  0  0  0  0  0  0  0  0  0  0
    2.4090   -1.9390    1.5270 C   0  0  0  0  0  0  0  0  0  0  0  0
    3.6760   -1.6520    1.1980 N   0  0  0  0  0  0  0  0  0  0  0  0
    3.9910   -0.7870    0.2070 C   0  0  0  0  0  0  0  0  0  0  0  0
    5.3320   -0.5680   -0.0440 O   0  0  0  0  0  0  0  0  0  0  0  0
    5.8870    0.2760   -1.0000 C   0  0  1  0  0  0  0  0  0  0  0  0
    6.7680    1.2650   -0.2340 C   0  0  0  0  0  0  0  0  0  0  0  0
    7.3190    2.2950   -1.0500 N   0  0  0  0  0  0  0  0  0  0  0  0
    8.3100    1.8670   -1.8610 O   0  0  0  0  0  0  0  0  0  0  0  0
    8.5320    0.1610   -1.7170 S   0  0  0  0  0  0  0  0  0  0  0  0
    6.8520   -0.5690   -1.8440 C   0  0  0  0  0  0  0  0  0  0  0  0
    2.9620   -0.1890   -0.4790 C   0  0  0  0  0  0  0  0  0  0  0  0
   -1.7670   -1.2870   -0.7440 C   0  0  0  0  0  0  0  0  0  0  0  0
   -0.9740   -2.1760   -1.1900 O   0  0  0  0  0  0  0  0  0  0  0  0
   -3.0910   -1.6220   -0.3750 N   0  0  0  0  0  0  0  0  0  0  0  0
   -3.6250   -2.9280   -0.4680 C   0  0  0  0  0  0  0  0  0  0  0  0
   -3.0610   -4.0800   -0.9720 C   0  0  0  0  0  0  0  0  0  0  0  0
   -3.9480   -5.1370   -0.8510 C   0  0  0  0  0  0  0  0  0  0  0  0
   -5.0660   -4.6360   -0.2700 N   0  0  0  0  0  0  0  0  0  0  0  0
   -4.8840   -3.3170   -0.0370 C   0  0  0  0  0  0  0  0  0  0  0  0
   -6.0040   -5.7140   -0.1310 C   0  0  0  0  0  0  0  0  0  0  0  0
   -7.2910   -5.5630    0.4410 N   0  0  0  0  0  0  0  0  0  0  0  0
   -5.4790   -6.8140   -0.6050 N   0  0  0  0  0  0  0  0  0  0  0  0
   -4.1730   -6.5620   -1.0890 C   0  0  0  0  0  0  0  0  0  0  0  0
   -3.3460   -7.3580   -1.6170 O   0  0  0  0  0  0  0  0  0  0  0  0
  1  2  1  0
  2  3  1  0
  3  4  2  0
  3  5  1  0
  5  6  1  0
  6  7  1  0
  7  8  2  0
  7  9  1  0
 10  9  1  1
 10 11  1  0
 10 25  1  0
 11 12  1  0
 12 13  2  0
 12 24  1  0
 13 14  1  0
 14 15  2  0
 15 16  1  0
 16 17  1  0
 16 24  2  0
 18 17  1  1
 18 19  1  0
 18 23  1  0
 19 20  1  0
 20 21  1  0
 21 22  1  0
 22 23  1  0
 25 26  2  0
 25 27  1  0
 27 28  1  0
 28 29  1  0
 28 32  2  0
 29 30  2  0
 30 31  1  0
 30 36  1  0
 31 32  1  0
 31 33  1  0
 33 34  1  0
 33 35  2  0
 35 36  1  0
 36 37  2  0
M  END
