
     RDKit          3D

 27 29  0  0  0  0  0  0  0  0999 V2000
   -7.7300    0.5480   -0.6070 C   0  0  0  0  0  0  0  0  0  0  0  0
   -6.2900    0.2630   -0.4850 C   0  0  0  0  0  0  0  0  0  0  0  0
   -5.3650    1.2610   -0.8320 C   0  0  0  0  0  0  0  0  0  0  0  0
   -4.0450    1.0390   -0.5410 C   0  0  0  0  0  0  0  0  0  0  0  0
   -3.0290    1.8550   -1.2170 C   0  0  0  0  0  0  0  0  0  0  0  0
   -3.5690   -0.1430    0.0700 C   0  0  0  0  0  0  0  0  0  0  0  0
   -2.2260    0.0660    0.4720 C   0  0  0  0  0  0  0  0  0  0  0  0
   -1.1610   -0.8940    0.5750 N   0  0  0  0  0  0  0  0  0  0  0  0
    0.1010   -0.2470    0.1650 C   0  0  0  0  0  0  0  0  0  0  0  0
   -0.0340    0.9080   -0.3430 O   0  0  0  0  0  0  0  0  0  0  0  0
    1.2880   -0.9030    0.4150 N   0  0  0  0  0  0  0  0  0  0  0  0
    2.4930   -0.1360    0.5000 C   0  0  0  0  0  0  0  0  0  0  0  0
    2.6250    1.1800    0.2160 C   0  0  0  0  0  0  0  0  0  0  0  0
    3.9920    1.4390    0.1640 N   0  0  0  0  0  0  0  0  0  0  0  0
    4.6020    0.2690    0.4130 N   0  0  0  0  0  0  0  0  0  0  0  0
    6.0270    0.1070    0.3280 C   0  0  0  0  0  0  0  0  0  0  0  0
    6.8680   -0.4910    1.2290 C   0  0  0  0  0  0  0  0  0  0  0  0
    8.2430   -0.4970    1.0310 C   0  0  0  0  0  0  0  0  0  0  0  0
    8.8580    0.1180   -0.1140 C   0  0  0  0  0  0  0  0  0  0  0  0
   10.5630    0.2590   -0.2340 Cl  0  0  0  0  0  0  0  0  0  0  0  0
    7.9520    0.6870   -1.0370 C   0  0  0  0  0  0  0  0  0  0  0  0
    6.6670    0.6960   -0.8300 C   0  0  0  0  0  0  0  0  0  0  0  0
    3.7140   -0.7090    0.6780 C   0  0  0  0  0  0  0  0  0  0  0  0
   -4.4290   -1.1020    0.3790 C   0  0  0  0  0  0  0  0  0  0  0  0
   -4.1050   -2.2930    1.1480 C   0  0  0  0  0  0  0  0  0  0  0  0
   -5.8300   -0.9300    0.0950 C   0  0  0  0  0  0  0  0  0  0  0  0
   -6.9630   -2.2460    0.2360 Cl  0  0  0  0  0  0  0  0  0  0  0  0
  1  2  1  0
  2  3  2  0
  2 26  1  0
  3  4  1  0
  4  5  1  0
  4  6  2  0
  6  7  1  0
  6 24  1  0
  7  8  1  0
  8  9  1  0
  9 10  2  0
  9 11  1  0
 11 12  1  0
 12 13  1  0
 12 23  2  0
 13 14  2  0
 14 15  1  0
 15 16  1  0
 15 23  1  0
 16 17  2  0
 16 22  1  0
 17 18  1  0
 18 19  2  0
 19 20  1  0
 19 21  1  0
 21 22  2  0
 24 25  1  0
 24 26  2  0
 26 27  1  0
M  END
