
     RDKit          3D

 27 29  0  0  0  0  0  0  0  0999 V2000
    5.2540   -0.6710    2.3120 C   0  0  0  0  0  0  0  0  0  0  0  0
    4.9130   -0.4340    1.0710 C   0  0  0  0  0  0  0  0  0  0  0  0
    3.7740   -1.1510    0.4700 C   0  0  0  0  0  0  0  0  0  0  0  0
    3.0300   -0.2380   -0.3740 N   0  0  0  0  0  0  0  0  0  0  0  0
    1.6210   -0.0840   -0.2890 C   0  0  0  0  0  0  0  0  0  0  0  0
    0.8220   -0.8840   -1.0660 C   0  0  0  0  0  0  0  0  0  0  0  0
    1.4610   -1.8800   -1.9650 C   0  0  0  0  0  0  0  0  0  0  0  0
   -0.5590   -0.8080   -1.0520 C   0  0  0  0  0  0  0  0  0  0  0  0
   -1.1820    0.1210   -0.2150 C   0  0  0  0  0  0  0  0  0  0  0  0
   -2.6090    0.1620   -0.2500 N   0  0  0  0  0  0  0  0  0  0  0  0
   -3.4480    0.8750    0.6010 C   0  0  0  0  0  0  0  0  0  0  0  0
   -2.9450    1.5920    1.5090 O   0  0  0  0  0  0  0  0  0  0  0  0
   -4.8990    0.8780    0.5360 C   0  0  0  0  0  0  0  0  0  0  0  0
   -5.6830   -0.1250    0.0660 C   0  0  0  0  0  0  0  0  0  0  0  0
   -5.1120   -1.4450   -0.3250 C   0  0  0  0  0  0  0  0  0  0  0  0
   -7.0670    0.0510   -0.0030 C   0  0  0  0  0  0  0  0  0  0  0  0
   -7.6850    1.2050    0.3890 C   0  0  0  0  0  0  0  0  0  0  0  0
   -6.8830    2.1890    0.8570 N   0  0  0  0  0  0  0  0  0  0  0  0
   -5.5710    2.0560    0.9340 C   0  0  0  0  0  0  0  0  0  0  0  0
   -4.5950    3.3630    1.5470 Cl  0  0  0  0  0  0  0  0  0  0  0  0
   -0.4110    0.9190    0.5580 C   0  0  0  0  0  0  0  0  0  0  0  0
    0.9850    0.8250    0.5290 C   0  0  0  0  0  0  0  0  0  0  0  0
    1.9910    1.8540    1.5260 Cl  0  0  0  0  0  0  0  0  0  0  0  0
    3.7410    0.5600   -1.3520 C   0  0  0  0  0  0  0  0  0  0  0  0
    4.9790    1.1040   -0.8480 N   0  0  0  0  0  0  0  0  0  0  0  0
    5.6500    0.5310    0.2830 C   0  0  0  0  0  0  0  0  0  0  0  0
    6.8820    0.8670    0.5930 C   0  0  0  0  0  0  0  0  0  0  0  0
  1  2  2  0
  2  3  1  0
  2 26  1  0
  3  4  1  0
  4  5  1  0
  4 24  1  0
  5  6  2  0
  5 22  1  0
  6  7  1  0
  6  8  1  0
  8  9  2  0
  9 10  1  0
  9 21  1  0
 10 11  1  0
 11 12  2  0
 11 13  1  0
 13 14  2  0
 13 19  1  0
 14 15  1  0
 14 16  1  0
 16 17  2  0
 17 18  1  0
 18 19  2  0
 19 20  1  0
 21 22  2  0
 22 23  1  0
 24 25  1  0
 25 26  1  0
 26 27  2  0
M  END
