
     RDKit          3D

 17 18  0  0  0  0  0  0  0  0999 V2000
   -3.2460   -1.4340   -1.9320 C   0  0  0  0  0  0  0  0  0  0  0  0
   -2.6040   -1.8360   -0.6220 C   0  0  0  0  0  0  0  0  0  0  0  0
   -2.0840   -0.6230    0.0400 N   0  0  0  0  0  0  0  0  0  0  0  0
   -3.1080    0.2810    0.5090 C   0  0  0  0  0  0  0  0  0  0  0  0
   -2.5370    1.5120    1.1580 C   0  0  0  0  0  0  0  0  0  0  0  0
   -0.6940   -0.3980    0.1640 C   0  0  0  0  0  0  0  0  0  0  0  0
    0.0690   -1.0570    1.0970 C   0  0  0  0  0  0  0  0  0  0  0  0
    1.4330   -0.7580    1.1180 C   0  0  0  0  0  0  0  0  0  0  0  0
    2.0150    0.1320    0.2770 C   0  0  0  0  0  0  0  0  0  0  0  0
    3.3870    0.3550    0.3860 C   0  0  0  0  0  0  0  0  0  0  0  0
    4.2770   -0.2950    1.3130 C   0  0  0  0  0  0  0  0  0  0  0  0
    3.9040    1.2760   -0.5030 C   0  0  0  0  0  0  0  0  0  0  0  0
    3.0820    1.9170   -1.4300 C   0  0  0  0  0  0  0  0  0  0  0  0
    3.5250    2.7560   -2.2470 O   0  0  0  0  0  0  0  0  0  0  0  0
    1.7860    1.6500   -1.4700 O   0  0  0  0  0  0  0  0  0  0  0  0
    1.2420    0.7830   -0.6490 C   0  0  0  0  0  0  0  0  0  0  0  0
   -0.1210    0.5130   -0.7010 C   0  0  0  0  0  0  0  0  0  0  0  0
  1  2  1  0
  2  3  1  0
  3  4  1  0
  3  6  1  0
  4  5  1  0
  6  7  2  0
  6 17  1  0
  7  8  1  0
  8  9  2  0
  9 10  1  0
  9 16  1  0
 10 11  1  0
 10 12  2  0
 12 13  1  0
 13 14  2  0
 13 15  1  0
 15 16  1  0
 16 17  2  0
M  END
