
     RDKit          3D

 26 28  0  0  0  0  0  0  0  0999 V2000
   -7.7400    0.3140   -0.2520 N   0  0  0  0  0  0  0  0  0  0  0  0
   -6.4310   -0.2350   -0.1900 C   0  0  0  0  0  0  0  0  0  0  0  0
   -6.1870   -1.5560   -0.2490 N   0  0  0  0  0  0  0  0  0  0  0  0
   -4.9330   -2.0630   -0.1880 C   0  0  0  0  0  0  0  0  0  0  0  0
   -3.8470   -1.2590   -0.0640 N   0  0  0  0  0  0  0  0  0  0  0  0
   -4.0290    0.0610   -0.0000 C   0  0  0  0  0  0  0  0  0  0  0  0
   -5.3090    0.5860   -0.0620 C   0  0  0  0  0  0  0  0  0  0  0  0
   -5.1480    1.9200    0.0270 N   0  0  0  0  0  0  0  0  0  0  0  0
   -3.8260    2.1980    0.1380 C   0  0  0  0  0  0  0  0  0  0  0  0
   -3.1330    1.0460    0.1210 N   0  0  0  0  0  0  0  0  0  0  0  0
   -1.6940    0.9890    0.2220 C   0  0  2  0  0  0  0  0  0  0  0  0
   -1.1640   -0.0700   -0.4640 O   0  0  0  0  0  0  0  0  0  0  0  0
    0.1530   -0.2270    0.0290 C   0  0  2  0  0  0  0  0  0  0  0  0
    0.4350   -1.6820   -0.0610 C   0  0  0  0  0  0  0  0  0  0  0  0
    1.9880   -2.2930    0.4760 S   0  0  0  0  0  0  0  0  0  0  0  0
    3.4450   -1.8620   -0.4200 C   0  0  0  0  0  0  0  0  0  0  0  0
    3.8670   -0.4150   -0.3480 C   0  0  0  0  0  0  0  0  0  0  0  0
    5.1360   -0.2060   -1.1570 C   0  0  2  0  0  0  0  0  0  0  0  0
    6.2210   -1.0120   -0.6670 N   0  0  0  0  0  0  0  0  0  0  0  0
    5.5530    1.1960   -1.1930 C   0  0  0  0  0  0  0  0  0  0  0  0
    6.7090    1.5290   -0.8270 O   0  0  0  0  0  0  0  0  0  0  0  0
    4.7380    2.2390   -1.6200 O   0  0  0  0  0  0  0  0  0  0  0  0
    0.1430    0.2270    1.4570 C   0  0  1  0  0  0  0  0  0  0  0  0
    0.9550    1.3620    1.6150 O   0  0  0  0  0  0  0  0  0  0  0  0
   -1.2810    0.6950    1.6620 C   0  0  1  0  0  0  0  0  0  0  0  0
   -1.3410    1.8600    2.4210 O   0  0  0  0  0  0  0  0  0  0  0  0
  1  2  1  0
  2  3  2  0
  2  7  1  0
  3  4  1  0
  4  5  2  0
  5  6  1  0
  6  7  2  0
  6 10  1  0
  7  8  1  0
  8  9  2  0
  9 10  1  0
 11 10  1  1
 11 12  1  0
 11 25  1  0
 12 13  1  0
 13 14  1  1
 13 23  1  0
 14 15  1  0
 15 16  1  0
 16 17  1  0
 17 18  1  0
 18 19  1  1
 18 20  1  0
 20 21  2  0
 20 22  1  0
 23 24  1  6
 23 25  1  0
 25 26  1  1
M  CHG  1  19   1
M  END
