
     RDKit          3D

 26 27  0  0  0  0  0  0  0  0999 V2000
   -2.9880    2.3480   -0.2890 C   0  0  0  0  0  0  0  0  0  0  0  0
   -3.5370    1.3250    0.6460 C   0  0  1  0  0  0  0  0  0  0  0  0
   -3.4500    1.7490    2.1000 C   0  0  0  0  0  0  0  0  0  0  0  0
   -4.9080    1.1370    0.3580 O   0  0  0  0  0  0  0  0  0  0  0  0
   -5.0090   -0.1330   -0.2370 C   0  0  0  0  0  0  0  0  0  0  0  0
   -3.7370   -0.5000   -0.6450 O   0  0  0  0  0  0  0  0  0  0  0  0
   -2.9560   -0.0220    0.4100 C   0  0  2  0  0  0  0  0  0  0  0  0
   -3.1560   -0.9360    1.6340 C   0  0  0  0  0  0  0  0  0  0  0  0
   -2.7240   -2.2680    1.2040 N   0  0  0  0  0  0  0  0  0  0  0  0
   -1.5150   -0.0690    0.0720 C   0  0  0  0  0  0  0  0  0  0  0  0
   -0.4640   -0.3610    0.8530 N   0  0  0  0  0  0  0  0  0  0  0  0
    0.7040   -0.3590    0.1140 C   0  0  0  0  0  0  0  0  0  0  0  0
    1.9860   -0.6830    0.7290 C   0  0  2  0  0  0  0  0  0  0  0  0
    1.8290   -1.6520    1.7640 O   0  0  0  0  0  0  0  0  0  0  0  0
    2.8400    0.3940    1.2610 C   0  0  0  0  0  0  0  0  0  0  0  0
    3.4860    1.5660    0.0260 S   0  0  0  0  0  0  0  0  0  0  0  0
    4.6710    0.6780   -1.0560 C   0  0  0  0  0  0  0  0  0  0  0  0
    5.8910    0.2940   -0.2810 C   0  0  0  0  0  0  0  0  0  0  0  0
    6.1990    0.7390    1.0040 N   0  0  0  0  0  0  0  0  0  0  0  0
    6.6790   -0.4870   -0.8700 O   0  0  0  0  0  0  0  0  0  0  0  0
    0.3470   -0.0620   -1.1160 N   0  0  0  0  0  0  0  0  0  0  0  0
    1.1220    0.0950   -2.3130 C   0  0  0  0  0  0  0  0  0  0  0  0
    1.3090   -1.1630   -3.0890 C   0  0  0  0  0  0  0  0  0  0  0  0
    2.5840   -1.6870   -3.3880 N   0  0  0  0  0  0  0  0  0  0  0  0
    0.2840   -1.7680   -3.4880 O   0  0  0  0  0  0  0  0  0  0  0  0
   -0.9910    0.1130   -1.1400 N   0  0  0  0  0  0  0  0  0  0  0  0
  2  1  1  6
  2  3  1  0
  2  4  1  0
  2  7  1  0
  4  5  1  0
  5  6  1  0
  6  7  1  0
  7  8  1  1
  7 10  1  0
  8  9  1  0
 10 11  1  0
 10 26  2  0
 11 12  2  0
 12 13  1  0
 12 21  1  0
 13 14  1  1
 13 15  1  0
 15 16  1  0
 16 17  1  0
 17 18  1  0
 18 19  1  0
 18 20  2  0
 21 22  1  0
 21 26  1  0
 22 23  1  0
 23 24  1  0
 23 25  2  0
M  CHG  1   9   1
M  END
