
     RDKit          3D

 26 27  0  0  0  0  0  0  0  0999 V2000
    4.2580   -2.2070   -1.3260 N   0  0  0  0  0  0  0  0  0  0  0  0
    3.6900   -1.0350   -0.7090 C   0  0  0  0  0  0  0  0  0  0  0  0
    3.3320   -0.0400   -1.3700 O   0  0  0  0  0  0  0  0  0  0  0  0
    3.5510   -1.1450    0.8240 C   0  0  2  0  0  0  0  0  0  0  0  0
    2.1560   -0.9390    1.1030 N   0  0  0  0  0  0  0  0  0  0  0  0
    1.1210   -0.8980    0.0490 C   0  0  0  0  0  0  0  0  0  0  0  0
    1.4190   -0.9890   -1.0910 O   0  0  0  0  0  0  0  0  0  0  0  0
   -0.1430   -0.7770    0.6930 N   0  0  0  0  0  0  0  0  0  0  0  0
   -1.0470   -0.4440   -0.7710 C   0  0  0  0  0  0  0  0  0  0  0  0
   -0.4340   -0.4860   -1.7590 O   0  0  0  0  0  0  0  0  0  0  0  0
   -2.3440   -0.1960   -0.5040 N   0  0  0  0  0  0  0  0  0  0  0  0
   -3.2180   -0.4790   -1.6810 C   0  0  0  0  0  0  0  0  0  0  0  0
   -4.3750   -1.3480   -1.2410 C   0  0  0  0  0  0  0  0  0  0  0  0
   -5.3480   -0.5240   -0.7970 O   0  0  0  0  0  0  0  0  0  0  0  0
   -5.2910   -0.0430    0.4630 C   0  0  2  0  0  0  0  0  0  0  0  0
   -5.5700    1.4690    0.3680 C   0  0  0  0  0  0  0  0  0  0  0  0
   -6.8740    1.7370   -0.1680 N   0  0  0  0  0  0  0  0  0  0  0  0
   -4.0450   -0.2440    1.2760 C   0  0  0  0  0  0  0  0  0  0  0  0
   -2.8150    0.3990    0.7080 C   0  0  0  0  0  0  0  0  0  0  0  0
    4.1290    0.1940    1.2350 C   0  0  2  0  0  0  0  0  0  0  0  0
    3.2080    1.2090    0.6220 N   0  0  0  0  0  0  0  0  0  0  0  0
    5.4580    0.4510    0.7250 C   0  0  0  0  0  0  0  0  0  0  0  0
    6.4780   -0.2430    0.4870 C   0  0  0  0  0  0  0  0  0  0  0  0
    7.5960    0.2960   -0.0080 O   0  0  0  0  0  0  0  0  0  0  0  0
    7.8080    1.6510    0.2210 C   0  0  0  0  0  0  0  0  0  0  0  0
    6.0660    2.1550    0.3800 S   0  0  0  0  0  0  0  0  0  0  0  0
  1  2  1  0
  2  3  2  0
  2  4  1  0
  4  5  1  6
  4 20  1  0
  5  6  1  0
  6  7  2  0
  6  8  1  0
  8  9  1  0
  9 10  2  0
  9 11  1  0
 11 12  1  0
 11 19  1  0
 12 13  1  0
 13 14  1  0
 14 15  1  0
 15 16  1  6
 15 18  1  0
 16 17  1  0
 18 19  1  0
 20 21  1  6
 20 22  1  0
 22 23  2  0
 22 26  1  0
 23 24  1  0
 24 25  1  0
 25 26  1  0
M  CHG  1  17   1
M  END
