
     RDKit          3D

 26 28  0  0  0  0  0  0  0  0999 V2000
   -4.3300   -1.1740    0.9710 C   0  0  0  0  0  0  0  0  0  0  0  0
   -4.3940   -0.1250   -0.1490 C   0  0  1  0  0  0  0  0  0  0  0  0
   -3.9890   -0.7350   -1.4180 C   0  0  0  0  0  0  0  0  0  0  0  0
   -2.6870   -1.2470   -1.6170 N   0  0  0  0  0  0  0  0  0  0  0  0
   -4.8140   -0.8070   -2.3550 O   0  0  0  0  0  0  0  0  0  0  0  0
   -5.7720    0.3280   -0.1730 N   0  0  0  0  0  0  0  0  0  0  0  0
   -6.0970    1.4540    0.6290 C   0  0  0  0  0  0  0  0  0  0  0  0
   -7.2650    1.9550    0.6520 O   0  0  0  0  0  0  0  0  0  0  0  0
   -5.0940    2.1330    1.5030 C   0  0  0  0  0  0  0  0  0  0  0  0
   -3.8960    1.4200    1.5430 O   0  0  0  0  0  0  0  0  0  0  0  0
   -3.5540    1.0610    0.2400 C   0  0  1  0  0  0  0  0  0  0  0  0
   -2.1260    0.8490    0.0780 C   0  0  0  0  0  0  0  0  0  0  0  0
   -1.2780    1.2900   -0.9430 C   0  0  0  0  0  0  0  0  0  0  0  0
    0.0100    0.9770   -0.8880 C   0  0  0  0  0  0  0  0  0  0  0  0
    0.4640    0.2030    0.2150 C   0  0  0  0  0  0  0  0  0  0  0  0
    1.7450   -0.2620    0.5210 N   0  0  0  0  0  0  0  0  0  0  0  0
    2.8550   -0.0060   -0.2910 C   0  0  0  0  0  0  0  0  0  0  0  0
    2.8190    0.6550   -1.3580 O   0  0  0  0  0  0  0  0  0  0  0  0
    4.1570   -0.5060    0.0640 N   0  0  0  0  0  0  0  0  0  0  0  0
    5.3300   -0.2830   -0.7160 C   0  0  1  0  0  0  0  0  0  0  0  0
    6.4150    0.3340    0.1510 C   0  0  0  0  0  0  0  0  0  0  0  0
    6.9130   -0.7910    0.9000 N   0  0  0  0  0  0  0  0  0  0  0  0
    6.9010   -1.8620   -0.0050 C   0  0  0  0  0  0  0  0  0  0  0  0
    7.6250   -2.8860    0.0550 O   0  0  0  0  0  0  0  0  0  0  0  0
    5.9280   -1.5950   -1.0070 N   0  0  0  0  0  0  0  0  0  0  0  0
   -1.0120   -0.0300    1.1200 S   0  0  0  0  0  0  0  0  0  0  0  0
  2  1  1  1
  2  3  1  0
  2  6  1  0
  2 11  1  0
  3  4  1  0
  3  5  2  0
  6  7  1  0
  7  8  2  0
  7  9  1  0
  9 10  1  0
 10 11  1  0
 11 12  1  1
 12 13  2  0
 12 26  1  0
 13 14  1  0
 14 15  2  0
 15 16  1  0
 15 26  1  0
 16 17  1  0
 17 18  2  0
 17 19  1  0
 20 19  1  1
 20 21  1  0
 20 25  1  0
 21 22  1  0
 22 23  1  0
 23 24  2  0
 23 25  1  0
M  CHG  1  22   1
M  END
