
     RDKit          3D

 26 29  0  0  0  0  0  0  0  0999 V2000
    4.2660    3.6200    0.3080 N   0  0  0  0  0  0  0  0  0  0  0  0
    3.5920    2.3790    0.4560 C   0  0  0  0  0  0  0  0  0  0  0  0
    3.3030    1.8490    1.7000 C   0  0  0  0  0  0  0  0  0  0  0  0
    2.6510    0.6470    1.8250 C   0  0  0  0  0  0  0  0  0  0  0  0
    2.2570   -0.0780    0.6950 C   0  0  0  0  0  0  0  0  0  0  0  0
    1.6020   -1.3760    0.8530 C   0  0  0  0  0  0  0  0  0  0  0  0
    2.2910   -2.3850    1.5530 C   0  0  0  0  0  0  0  0  0  0  0  0
    1.7910   -3.6490    1.7190 C   0  0  0  0  0  0  0  0  0  0  0  0
    2.6620   -4.8980    2.5950 Cl  0  0  0  0  0  0  0  0  0  0  0  0
    0.5610   -3.9140    1.1660 C   0  0  0  0  0  0  0  0  0  0  0  0
   -0.1650   -5.4980    1.3210 Cl  0  0  0  0  0  0  0  0  0  0  0  0
   -0.1620   -2.9430    0.4620 C   0  0  0  0  0  0  0  0  0  0  0  0
   -1.3640   -2.9900   -0.1390 N   0  0  0  0  0  0  0  0  0  0  0  0
   -1.5840   -1.7460   -0.6630 C   0  0  0  0  0  0  0  0  0  0  0  0
   -0.5390   -0.9060   -0.4060 C   0  0  0  0  0  0  0  0  0  0  0  0
    0.3850   -1.6780    0.3210 C   0  0  0  0  0  0  0  0  0  0  0  0
   -0.5440    0.5080   -0.8490 C   0  0  0  0  0  0  0  0  0  0  0  0
   -1.9250    0.8710   -1.1220 N   0  0  0  0  0  0  0  0  0  0  0  0
   -2.5840    1.9630   -0.5430 C   0  0  0  0  0  0  0  0  0  0  0  0
   -1.9660    2.6900    0.2660 O   0  0  0  0  0  0  0  0  0  0  0  0
   -3.9920    2.2830   -0.8590 C   0  0  0  0  0  0  0  0  0  0  0  0
   -4.4090    3.4070   -0.1580 O   0  0  0  0  0  0  0  0  0  0  0  0
   -2.6310    0.0250   -2.0570 C   0  0  0  0  0  0  0  0  0  0  0  0
   -2.7950   -1.3310   -1.4290 C   0  0  0  0  0  0  0  0  0  0  0  0
    2.5600    0.4790   -0.5260 C   0  0  0  0  0  0  0  0  0  0  0  0
    3.1950    1.6480   -0.6020 N   0  0  0  0  0  0  0  0  0  0  0  0
  1  2  1  0
  2  3  2  0
  2 26  1  0
  3  4  1  0
  4  5  2  0
  5  6  1  0
  5 25  1  0
  6  7  2  0
  6 16  1  0
  7  8  1  0
  8  9  1  0
  8 10  2  0
 10 11  1  0
 10 12  1  0
 12 13  1  0
 12 16  2  0
 13 14  1  0
 14 15  2  0
 14 24  1  0
 15 16  1  0
 15 17  1  0
 17 18  1  0
 18 19  1  0
 18 23  1  0
 19 20  2  0
 19 21  1  0
 21 22  1  0
 23 24  1  0
 25 26  2  0
M  END
