
     RDKit          3D

 26 29  0  0  0  0  0  0  0  0999 V2000
    0.4630    1.3070    2.2100 O   0  0  0  0  0  0  0  0  0  0  0  0
   -0.3690    0.8300    1.3230 C   0  0  0  0  0  0  0  0  0  0  0  0
   -1.7390    1.0920    1.6300 C   0  0  0  0  0  0  0  0  0  0  0  0
   -2.8510    0.8230    1.0860 C   0  0  0  0  0  0  0  0  0  0  0  0
   -3.1740    0.1000   -0.1290 C   0  0  1  0  0  0  0  0  0  0  0  0
   -4.1600   -1.0200    0.3150 C   0  0  0  0  0  0  0  0  0  0  0  0
   -5.3830   -0.7690    0.9940 C   0  0  0  0  0  0  0  0  0  0  0  0
   -6.7420   -0.5890    0.3020 C   0  0  0  0  0  0  0  0  0  0  0  0
   -6.6630    0.5930   -0.7400 C   0  0  0  0  0  0  0  0  0  0  0  0
   -5.2860    0.8110   -0.8980 C   0  0  0  0  0  0  0  0  0  0  0  0
   -3.9410    1.0820   -1.1160 C   0  0  0  0  0  0  0  0  0  0  0  0
    0.2080    0.1580    0.2450 N   0  0  0  0  0  0  0  0  0  0  0  0
    1.6090   -0.0540    0.0550 C   0  0  0  0  0  0  0  0  0  0  0  0
    2.5190   -0.0350    1.0790 C   0  0  0  0  0  0  0  0  0  0  0  0
    3.8780   -0.2240    0.7960 C   0  0  0  0  0  0  0  0  0  0  0  0
    4.3440   -0.4310   -0.4790 C   0  0  0  0  0  0  0  0  0  0  0  0
    5.7110   -0.6250   -0.7920 N   0  0  0  0  0  0  0  0  0  0  0  0
    6.2040   -1.3800   -1.7650 N   0  0  0  0  0  0  0  0  0  0  0  0
    7.5490   -1.3190   -1.7560 C   0  0  0  0  0  0  0  0  0  0  0  0
    7.9080   -0.4790   -0.7210 C   0  0  0  0  0  0  0  0  0  0  0  0
    8.9610    0.0810   -0.0700 N   0  0  0  0  0  0  0  0  0  0  0  0
    8.4780    0.8290    0.8940 N   0  0  0  0  0  0  0  0  0  0  0  0
    7.1280    0.7790    0.9000 C   0  0  0  0  0  0  0  0  0  0  0  0
    6.7340   -0.0530   -0.1250 C   0  0  0  0  0  0  0  0  0  0  0  0
    3.3930   -0.4430   -1.4750 C   0  0  0  0  0  0  0  0  0  0  0  0
    2.0650   -0.2640   -1.2550 C   0  0  0  0  0  0  0  0  0  0  0  0
  1  2  2  0
  2  3  1  0
  2 12  1  0
  3  4  2  3
  5  4  1  1
  5  6  1  0
  5 11  1  0
  6  7  1  0
  7  8  1  0
  8  9  1  0
  9 10  1  0
 10 11  1  0
 12 13  1  0
 13 14  2  0
 13 26  1  0
 14 15  1  0
 15 16  2  0
 16 17  1  0
 16 25  1  0
 17 18  1  0
 17 24  1  0
 18 19  2  0
 19 20  1  0
 20 21  1  0
 20 24  2  0
 21 22  1  0
 22 23  2  0
 23 24  1  0
 25 26  2  0
M  END
