
     RDKit          3D

 26 29  0  0  0  0  0  0  0  0999 V2000
    0.8640   -2.1450    0.7410 O   0  0  0  0  0  0  0  0  0  0  0  0
    0.3230   -1.1200    0.2190 C   0  0  0  0  0  0  0  0  0  0  0  0
   -1.1000   -1.1750    0.0760 C   0  0  0  0  0  0  0  0  0  0  0  0
   -1.8010   -0.2010   -0.4420 C   0  0  0  0  0  0  0  0  0  0  0  0
   -3.2560   -0.2130   -0.6070 C   0  0  0  0  0  0  0  0  0  0  0  0
   -4.2460    0.5730   -1.0710 C   0  0  0  0  0  0  0  0  0  0  0  0
   -5.0470    1.7320   -0.6360 C   0  0  0  0  0  0  0  0  0  0  0  0
   -5.6050    2.0220    0.5950 C   0  0  0  0  0  0  0  0  0  0  0  0
   -5.8420    1.0480    1.7090 C   0  0  0  0  0  0  0  0  0  0  0  0
   -5.7560   -0.3120    1.7560 C   0  0  0  0  0  0  0  0  0  0  0  0
   -5.1410   -1.3020    0.7630 C   0  0  0  0  0  0  0  0  0  0  0  0
   -4.4090   -1.1420   -0.2980 C   0  0  0  0  0  0  0  0  0  0  0  0
   -4.7930   -1.6460   -1.6910 C   0  0  0  0  0  0  0  0  0  0  0  0
   -4.7870   -0.2020   -2.2100 N   0  0  0  0  0  0  0  0  0  0  0  0
    1.1690   -0.0560   -0.1580 N   0  0  0  0  0  0  0  0  0  0  0  0
    2.5740   -0.0080   -0.0230 C   0  0  0  0  0  0  0  0  0  0  0  0
    3.1800    1.2360   -0.0790 C   0  0  0  0  0  0  0  0  0  0  0  0
    4.5440    1.3360    0.0260 C   0  0  0  0  0  0  0  0  0  0  0  0
    5.3280    0.2130    0.1860 C   0  0  0  0  0  0  0  0  0  0  0  0
    6.7200    0.3660    0.2890 N   0  0  0  0  0  0  0  0  0  0  0  0
    7.4680    1.1100   -0.5310 C   0  0  0  0  0  0  0  0  0  0  0  0
    8.7420    1.0040   -0.1110 N   0  0  0  0  0  0  0  0  0  0  0  0
    8.7340    0.1970    0.9540 C   0  0  0  0  0  0  0  0  0  0  0  0
    7.4750   -0.2090    1.2140 N   0  0  0  0  0  0  0  0  0  0  0  0
    4.7520   -1.0270    0.2430 C   0  0  0  0  0  0  0  0  0  0  0  0
    3.3520   -1.1050    0.1340 C   0  0  0  0  0  0  0  0  0  0  0  0
  1  2  2  0
  2  3  1  0
  2 15  1  0
  3  4  2  3
  4  5  1  0
  5  6  2  0
  5 12  1  0
  6  7  1  0
  6 14  1  0
  7  8  2  0
  8  9  1  0
  9 10  2  0
 10 11  1  0
 11 12  2  0
 12 13  1  0
 13 14  1  0
 15 16  1  0
 16 17  2  0
 16 26  1  0
 17 18  1  0
 18 19  2  0
 19 20  1  0
 19 25  1  0
 20 21  1  0
 20 24  1  0
 21 22  2  0
 22 23  1  0
 23 24  2  0
 25 26  2  0
M  END
