
     RDKit          3D

 41 45  0  0  0  0  0  0  0  0999 V2000
    7.7200    2.9720    0.0510 C   0  0  0  0  0  0  0  0  0  0  0  0
    7.6930    1.5500    0.5110 C   0  0  1  0  0  0  0  0  0  0  0  0
    7.0810    0.6220   -0.5270 C   0  0  0  0  0  0  0  0  0  0  0  0
    6.8680   -0.6450    0.1430 N   0  0  1  0  0  0  0  0  0  0  0  0
    5.8330   -1.3330   -0.5580 C   0  0  0  0  0  0  0  0  0  0  0  0
    4.4560   -0.8030   -0.3500 C   0  0  0  0  0  0  0  0  0  0  0  0
    3.4630   -1.3790   -0.9800 C   0  0  0  0  0  0  0  0  0  0  0  0
    2.0800   -1.0930   -0.7440 C   0  0  0  0  0  0  0  0  0  0  0  0
    1.8830   -0.1070    0.1810 C   0  0  0  0  0  0  0  0  0  0  0  0
    0.3190    0.0450    1.0660 S   0  0  1  0  0  0  0  0  0  0  0  0
    0.1020    0.7730    2.0570 O   0  0  0  0  0  0  0  0  0  0  0  0
   -0.4930    0.6890   -0.3230 O   0  0  0  0  0  0  0  0  0  0  0  0
   -0.3470   -1.7040    0.8010 N   0  0  0  0  0  0  0  0  0  0  0  0
   -1.6440   -1.1040    0.5980 C   0  0  0  0  0  0  0  0  0  0  0  0
   -2.2820   -1.1160   -0.6030 C   0  0  0  0  0  0  0  0  0  0  0  0
   -1.7830   -1.5610   -1.6280 O   0  0  0  0  0  0  0  0  0  0  0  0
   -3.5650   -0.4700   -0.5510 N   0  0  0  0  0  0  0  0  0  0  0  0
   -4.5790   -1.0500   -1.5040 C   0  0  0  0  0  0  0  0  0  0  0  0
   -4.7520   -2.3520   -0.6890 C   0  0  0  0  0  0  0  0  0  0  0  0
   -5.3010   -2.5680    0.4810 C   0  0  0  0  0  0  0  0  0  0  0  0
   -5.1830   -3.9060    0.7950 C   0  0  0  0  0  0  0  0  0  0  0  0
   -4.5100   -4.4730   -0.2830 C   0  0  0  0  0  0  0  0  0  0  0  0
   -4.2730   -3.5150   -1.1610 O   0  0  0  0  0  0  0  0  0  0  0  0
   -3.8230    0.8000    0.0720 C   0  0  0  0  0  0  0  0  0  0  0  0
   -4.9720    1.1240    0.8480 C   0  0  0  0  0  0  0  0  0  0  0  0
   -5.4300    0.9070    2.0700 C   0  0  0  0  0  0  0  0  0  0  0  0
   -6.6490    1.3090    2.4730 C   0  0  0  0  0  0  0  0  0  0  0  0
   -7.5710    1.9250    1.7260 C   0  0  0  0  0  0  0  0  0  0  0  0
   -9.1820    2.3040    2.2410 Cl  0  0  0  0  0  0  0  0  0  0  0  0
   -7.1560    2.2240    0.4130 C   0  0  0  0  0  0  0  0  0  0  0  0
   -7.9650    3.0620   -0.3440 C   0  0  0  0  0  0  0  0  0  0  0  0
   -7.5510    3.5420   -1.5160 C   0  0  0  0  0  0  0  0  0  0  0  0
   -8.7180    4.2170   -2.6830 Cl  0  0  0  0  0  0  0  0  0  0  0  0
   -6.2850    3.1980   -2.0190 C   0  0  0  0  0  0  0  0  0  0  0  0
   -5.5140    2.3460   -1.2320 C   0  0  0  0  0  0  0  0  0  0  0  0
   -5.9210    1.8520   -0.0150 C   0  0  0  0  0  0  0  0  0  0  0  0
    2.8890    0.5500    0.8030 C   0  0  0  0  0  0  0  0  0  0  0  0
    4.1980    0.2360    0.5680 C   0  0  0  0  0  0  0  0  0  0  0  0
    8.0480   -1.4820    0.1750 C   0  0  0  0  0  0  0  0  0  0  0  0
    9.3370   -0.7620   -0.0670 C   0  0  0  0  0  0  0  0  0  0  0  0
    9.3810    0.8720    0.7540 S   0  0  0  0  0  0  0  0  0  0  0  0
  2  1  1  6
  2  3  1  0
  2 41  1  0
  3  4  1  0
  4  5  1  6
  4 39  1  0
  5  6  1  0
  6  7  2  0
  6 38  1  0
  7  8  1  0
  8  9  2  0
  9 10  1  0
  9 37  1  0
 10 11  2  0
 10 12  2  0
 10 13  1  1
 13 14  1  0
 14 15  1  0
 15 16  2  0
 15 17  1  0
 17 18  1  0
 17 24  1  0
 18 19  1  0
 19 20  2  0
 19 23  1  0
 20 21  1  0
 21 22  2  0
 22 23  1  0
 24 25  1  0
 25 26  2  0
 25 36  1  0
 26 27  1  0
 27 28  2  0
 28 29  1  0
 28 30  1  0
 30 31  2  0
 30 36  1  0
 31 32  1  0
 32 33  1  0
 32 34  2  0
 34 35  1  0
 35 36  2  0
 37 38  2  0
 39 40  1  0
 40 41  1  0
M  CHG  1   4   1
M  END
