
     RDKit          3D

 41 44  0  0  0  0  0  0  0  0999 V2000
   -5.0140    8.1800   -0.2120 C   0  0  0  0  0  0  0  0  0  0  0  0
   -4.0330    7.4020   -0.5890 C   0  0  0  0  0  0  0  0  0  0  0  0
   -4.0300    5.9570   -0.3490 C   0  0  0  0  0  0  0  0  0  0  0  0
   -5.0630    5.3560    0.3040 C   0  0  0  0  0  0  0  0  0  0  0  0
   -5.0690    3.9780    0.5360 C   0  0  0  0  0  0  0  0  0  0  0  0
   -3.9790    3.2630    0.0690 C   0  0  0  0  0  0  0  0  0  0  0  0
   -3.9630    1.7920    0.2800 C   0  0  0  0  0  0  0  0  0  0  0  0
   -5.0520    1.2020    0.3930 O   0  0  0  0  0  0  0  0  0  0  0  0
   -2.7090    1.1530    0.3380 N   0  0  0  0  0  0  0  0  0  0  0  0
   -2.5460   -0.2270    0.5310 C   0  0  0  0  0  0  0  0  0  0  0  0
   -3.6050   -1.0220    0.9540 C   0  0  0  0  0  0  0  0  0  0  0  0
   -3.4310   -2.3840    1.1940 C   0  0  0  0  0  0  0  0  0  0  0  0
   -2.2110   -2.9660    1.0180 C   0  0  0  0  0  0  0  0  0  0  0  0
   -1.9940   -4.3520    1.2530 N   0  0  0  0  0  0  0  0  0  0  0  0
   -0.8940   -4.7960    2.0790 C   0  0  0  0  0  0  0  0  0  0  0  0
   -2.8470   -5.3200    0.6830 C   0  0  0  0  0  0  0  0  0  0  0  0
   -3.8170   -4.9360   -0.0460 O   0  0  0  0  0  0  0  0  0  0  0  0
   -2.6800   -6.6810    0.8780 O   0  0  0  0  0  0  0  0  0  0  0  0
   -3.5830   -7.5700    0.2660 C   0  0  0  0  0  0  0  0  0  0  0  0
   -3.2050   -9.0090    0.6190 C   0  0  0  0  0  0  0  0  0  0  0  0
   -1.1670   -2.1440    0.5920 C   0  0  0  0  0  0  0  0  0  0  0  0
   -1.2760   -0.8060    0.3410 C   0  0  0  0  0  0  0  0  0  0  0  0
   -0.2200    0.0120   -0.1280 N   0  0  0  0  0  0  0  0  0  0  0  0
    1.1250   -0.4210   -0.2450 C   0  0  0  0  0  0  0  0  0  0  0  0
    1.4680   -1.5710    0.0630 O   0  0  0  0  0  0  0  0  0  0  0  0
    2.1180    0.5510   -0.7490 C   0  0  0  0  0  0  0  0  0  0  0  0
    1.7490    1.7040   -1.0210 O   0  0  0  0  0  0  0  0  0  0  0  0
    3.4370    0.2300   -0.9310 O   0  0  0  0  0  0  0  0  0  0  0  0
    4.4490    1.0670   -1.3920 C   0  0  2  0  0  0  0  0  0  0  0  0
    5.0880    0.3990   -2.5920 C   0  0  0  0  0  0  0  0  0  0  0  0
    6.4950    0.9330   -2.6510 C   0  0  0  0  0  0  0  0  0  0  0  0
    6.8650    1.0410   -1.1770 C   0  0  0  0  0  0  0  0  0  0  0  0
    8.0720    1.0570   -0.6720 C   0  0  0  0  0  0  0  0  0  0  0  0
    9.1300    0.9670   -1.5630 F   0  0  0  0  0  0  0  0  0  0  0  0
    8.4950    1.1530    0.7300 C   0  0  0  0  0  0  0  0  0  0  0  0
    7.1140    1.2860    1.8480 S   0  0  0  0  0  0  0  0  0  0  0  0
    5.6290    1.2300    0.8690 C   0  0  0  0  0  0  0  0  0  0  0  0
    4.3430    1.3080    1.5820 C   0  0  0  0  0  0  0  0  0  0  0  0
    5.6150    1.1250   -0.4470 C   0  0  0  0  0  0  0  0  0  0  0  0
   -2.9370    3.8400   -0.5870 C   0  0  0  0  0  0  0  0  0  0  0  0
   -2.9580    5.1900   -0.7980 C   0  0  0  0  0  0  0  0  0  0  0  0
  1  2  2  0
  2  3  1  0
  3  4  2  0
  3 41  1  0
  4  5  1  0
  5  6  2  0
  6  7  1  0
  6 40  1  0
  7  8  2  0
  7  9  1  0
  9 10  1  0
 10 11  2  0
 10 22  1  0
 11 12  1  0
 12 13  2  0
 13 14  1  0
 13 21  1  0
 14 15  1  0
 14 16  1  0
 16 17  2  0
 16 18  1  0
 18 19  1  0
 19 20  1  0
 21 22  2  0
 22 23  1  0
 23 24  1  0
 24 25  2  0
 24 26  1  0
 26 27  2  0
 26 28  1  0
 29 28  1  1
 29 30  1  0
 29 39  1  0
 30 31  1  0
 31 32  1  0
 32 33  2  0
 32 39  1  0
 33 34  1  0
 33 35  1  0
 35 36  1  0
 36 37  1  0
 37 38  1  0
 37 39  2  0
 40 41  2  0
M  END
