
     RDKit          3D

 41 45  0  0  0  0  0  0  0  0999 V2000
   -5.6370   -0.9190    3.0790 C   0  0  0  0  0  0  0  0  0  0  0  0
   -5.3180   -0.9740    1.5960 C   0  0  0  0  0  0  0  0  0  0  0  0
   -4.0800   -0.5640    1.1590 C   0  0  0  0  0  0  0  0  0  0  0  0
   -3.7320   -0.6080   -0.1950 C   0  0  0  0  0  0  0  0  0  0  0  0
   -2.5130   -0.1950   -0.6070 O   0  0  0  0  0  0  0  0  0  0  0  0
   -2.0130   -0.1300   -1.9170 C   0  0  1  0  0  0  0  0  0  0  0  0
   -2.3470    1.2690   -2.4950 C   0  0  0  0  0  0  0  0  0  0  0  0
   -2.6920    2.2080   -1.3400 C   0  0  0  0  0  0  0  0  0  0  0  0
   -2.2490    1.8090   -0.1380 O   0  0  0  0  0  0  0  0  0  0  0  0
   -1.5880    2.6440    0.6850 C   0  0  0  0  0  0  0  0  0  0  0  0
   -0.1070    2.3760    0.8300 C   0  0  0  0  0  0  0  0  0  0  0  0
    0.6570    2.9390   -0.2630 N   0  0  0  0  0  0  0  0  0  0  0  0
    2.0330    2.8770   -0.5090 C   0  0  0  0  0  0  0  0  0  0  0  0
    2.7570    3.9690   -0.4700 O   0  0  0  0  0  0  0  0  0  0  0  0
    2.8460    1.6640   -0.8310 C   0  0  0  0  0  0  0  0  0  0  0  0
    2.5250    0.9090   -1.9030 C   0  0  0  0  0  0  0  0  0  0  0  0
    3.8280   -0.4070   -2.0090 S   0  0  0  0  0  0  0  0  0  0  0  0
    4.6710    0.2220   -0.5670 C   0  0  0  0  0  0  0  0  0  0  0  0
    5.8540   -0.5550   -0.1710 N   0  0  0  0  0  0  0  0  0  0  0  0
    6.8670   -0.1960    0.7120 C   0  0  0  0  0  0  0  0  0  0  0  0
    6.8210    0.9660    1.2500 O   0  0  0  0  0  0  0  0  0  0  0  0
    8.0010   -0.9820    1.1220 C   0  0  0  0  0  0  0  0  0  0  0  0
    8.7200   -0.6070    2.2410 C   0  0  0  0  0  0  0  0  0  0  0  0
    9.7980   -1.3340    2.7050 C   0  0  0  0  0  0  0  0  0  0  0  0
   10.1760   -2.4710    2.0380 C   0  0  0  0  0  0  0  0  0  0  0  0
    9.4960   -2.8840    0.9270 C   0  0  0  0  0  0  0  0  0  0  0  0
    8.3980   -2.1130    0.4810 C   0  0  0  0  0  0  0  0  0  0  0  0
    7.7860   -2.5750   -0.6360 F   0  0  0  0  0  0  0  0  0  0  0  0
    4.0020    1.2580   -0.1390 C   0  0  0  0  0  0  0  0  0  0  0  0
    4.3450    1.8770    1.1700 C   0  0  0  0  0  0  0  0  0  0  0  0
    4.6260    2.3980    2.2240 N   0  0  0  0  0  0  0  0  0  0  0  0
    1.4210    0.9750   -2.8380 C   0  0  0  0  0  0  0  0  0  0  0  0
    1.6390    1.2510   -4.0860 O   0  0  0  0  0  0  0  0  0  0  0  0
    0.0790    0.7660   -2.5470 O   0  0  0  0  0  0  0  0  0  0  0  0
   -0.5310   -0.3760   -1.9960 C   0  0  0  0  0  0  0  0  0  0  0  0
   -4.6990   -1.0840   -1.0380 C   0  0  0  0  0  0  0  0  0  0  0  0
   -5.9490   -1.5050   -0.6510 C   0  0  0  0  0  0  0  0  0  0  0  0
   -6.2530   -1.4390    0.7330 C   0  0  0  0  0  0  0  0  0  0  0  0
   -7.6580   -1.9130    0.9290 C   0  0  0  0  0  0  0  0  0  0  0  0
   -8.2430   -1.4470   -0.4250 C   0  0  0  0  0  0  0  0  0  0  0  0
   -7.1430   -2.0430   -1.3300 C   0  0  0  0  0  0  0  0  0  0  0  0
  1  2  1  0
  2  3  2  0
  2 38  1  0
  3  4  1  0
  4  5  1  0
  4 36  2  0
  6  5  1  1
  6  7  1  0
  6 35  1  0
  7  8  1  0
  8  9  1  0
  9 10  1  0
 10 11  1  0
 11 12  1  0
 12 13  1  0
 13 14  2  0
 13 15  1  0
 15 16  2  0
 15 29  1  0
 16 17  1  0
 16 32  1  0
 17 18  1  0
 18 19  1  0
 18 29  2  0
 19 20  1  0
 20 21  2  0
 20 22  1  0
 22 23  2  0
 22 27  1  0
 23 24  1  0
 24 25  2  0
 25 26  1  0
 26 27  2  0
 27 28  1  0
 29 30  1  0
 30 31  3  0
 32 33  2  0
 32 34  1  0
 34 35  1  0
 36 37  1  0
 37 38  2  0
 37 41  1  0
 38 39  1  0
 39 40  1  0
 40 41  1  0
M  END
