
     RDKit          3D

 40 44  0  0  0  0  0  0  0  0999 V2000
    2.1610    1.1380    1.6860 C   0  0  0  0  0  0  0  0  0  0  0  0
    1.2910    1.4980    0.5550 C   0  0  1  0  0  0  0  0  0  0  0  0
    1.9100    1.1620   -0.7700 C   0  0  0  0  0  0  0  0  0  0  0  0
    3.3800    1.9910   -1.1690 S   0  0  1  0  0  0  0  0  0  0  0  0
    3.7630    1.5290   -2.5860 O   0  0  0  0  0  0  0  0  0  0  0  0
    3.1580    3.4890   -1.3560 O   0  0  0  0  0  0  0  0  0  0  0  0
    4.7780    1.7930   -0.1820 C   0  0  0  0  0  0  0  0  0  0  0  0
    5.3130    0.4250   -0.1730 C   0  0  0  0  0  0  0  0  0  0  0  0
    5.2650   -0.5880    0.3140 N   0  0  0  0  0  0  0  0  0  0  0  0
    5.9600   -1.6980    0.1120 C   0  0  0  0  0  0  0  0  0  0  0  0
    6.8970   -1.6810   -0.8190 C   0  0  0  0  0  0  0  0  0  0  0  0
    6.7430    0.0430   -1.4200 S   0  0  0  0  0  0  0  0  0  0  0  0
    7.6480   -2.9100   -1.0060 C   0  0  0  0  0  0  0  0  0  0  0  0
    6.8180   -3.9050   -0.2230 C   0  0  0  0  0  0  0  0  0  0  0  0
    5.9650   -3.0830    0.7160 C   0  0  0  0  0  0  0  0  0  0  0  0
   -0.1120    1.1350    0.6630 N   0  0  1  0  0  0  0  0  0  0  0  0
   -0.3570    0.0110    1.4950 C   0  0  0  0  0  0  0  0  0  0  0  0
   -1.5380   -0.8210    1.1560 C   0  0  0  0  0  0  0  0  0  0  0  0
   -1.8260   -1.7930    1.9420 O   0  0  0  0  0  0  0  0  0  0  0  0
   -2.3730   -0.6320    0.0440 N   0  0  0  0  0  0  0  0  0  0  0  0
   -3.5240   -1.3820   -0.2940 C   0  0  0  0  0  0  0  0  0  0  0  0
   -4.4610   -0.8160   -1.1660 C   0  0  0  0  0  0  0  0  0  0  0  0
   -5.6250   -1.4560   -1.5410 C   0  0  0  0  0  0  0  0  0  0  0  0
   -5.9030   -2.7050   -1.0540 C   0  0  0  0  0  0  0  0  0  0  0  0
   -5.0090   -3.3000   -0.1960 C   0  0  0  0  0  0  0  0  0  0  0  0
   -3.8480   -2.6320    0.1620 C   0  0  0  0  0  0  0  0  0  0  0  0
   -5.3500   -4.6460    0.2950 C   0  0  0  0  0  0  0  0  0  0  0  0
   -5.9400   -5.4800   -0.6060 O   0  0  0  0  0  0  0  0  0  0  0  0
   -6.6770   -4.9230   -1.6090 C   0  0  0  0  0  0  0  0  0  0  0  0
   -7.1200   -3.4930   -1.3510 C   0  0  0  0  0  0  0  0  0  0  0  0
   -0.8470    2.3180    1.0930 C   0  0  2  0  0  0  0  0  0  0  0  0
   -0.2750    2.8380    2.3980 C   0  0  0  0  0  0  0  0  0  0  0  0
   -2.3010    2.0540    1.3710 C   0  0  0  0  0  0  0  0  0  0  0  0
   -0.7800    3.3860    0.0710 C   0  0  0  0  0  0  0  0  0  0  0  0
   -0.3250    4.6300    0.4230 C   0  0  0  0  0  0  0  0  0  0  0  0
   -0.2240    5.6640   -0.5110 C   0  0  0  0  0  0  0  0  0  0  0  0
   -0.5820    5.4530   -1.8240 C   0  0  0  0  0  0  0  0  0  0  0  0
   -0.4520    6.7630   -3.0090 Cl  0  0  0  0  0  0  0  0  0  0  0  0
   -1.0360    4.2180   -2.1810 C   0  0  0  0  0  0  0  0  0  0  0  0
   -1.1350    3.1870   -1.2390 C   0  0  0  0  0  0  0  0  0  0  0  0
  2  1  1  1
  2  3  1  0
  2 16  1  0
  4  3  1  1
  4  5  2  0
  4  6  2  0
  4  7  1  0
  7  8  1  0
  8  9  2  0
  8 12  1  0
  9 10  1  0
 10 11  2  0
 10 15  1  0
 11 12  1  0
 11 13  1  0
 13 14  1  0
 14 15  1  0
 16 17  1  1
 16 31  1  0
 17 18  1  0
 18 19  2  0
 18 20  1  0
 20 21  1  0
 21 22  2  0
 21 26  1  0
 22 23  1  0
 23 24  2  0
 24 25  1  0
 24 30  1  0
 25 26  2  0
 25 27  1  0
 27 28  1  0
 28 29  1  0
 29 30  1  0
 31 32  1  1
 31 33  1  0
 31 34  1  0
 34 35  2  0
 34 40  1  0
 35 36  1  0
 36 37  2  0
 37 38  1  0
 37 39  1  0
 39 40  2  0
M  CHG  1  16   1
M  END
