
     RDKit          3D

 41 45  0  0  0  0  0  0  0  0999 V2000
   -6.0270    3.3650    0.8310 C   0  0  0  0  0  0  0  0  0  0  0  0
   -4.7300    3.5610   -0.3570 S   0  0  2  0  0  0  0  0  0  0  0  0
   -3.4910    4.0200    0.4010 O   0  0  0  0  0  0  0  0  0  0  0  0
   -5.1140    4.5990   -1.3890 O   0  0  0  0  0  0  0  0  0  0  0  0
   -4.4100    2.0250   -1.1310 C   0  0  0  0  0  0  0  0  0  0  0  0
   -5.0660    1.7290   -2.3320 C   0  0  0  0  0  0  0  0  0  0  0  0
   -4.8260    0.5280   -2.9560 C   0  0  0  0  0  0  0  0  0  0  0  0
   -5.6600    0.1610   -4.4760 Cl  0  0  0  0  0  0  0  0  0  0  0  0
   -3.9370   -0.3840   -2.3940 C   0  0  0  0  0  0  0  0  0  0  0  0
   -3.2810   -0.1240   -1.2210 C   0  0  0  0  0  0  0  0  0  0  0  0
   -2.3720   -1.0360   -0.5830 N   0  0  0  0  0  0  0  0  0  0  0  0
   -2.9740   -2.2750   -0.0650 C   0  0  0  0  0  0  0  0  0  0  0  0
   -3.4680   -2.1240    1.3180 C   0  0  0  0  0  0  0  0  0  0  0  0
   -4.7450   -2.2920    1.7160 C   0  0  0  0  0  0  0  0  0  0  0  0
   -4.8700   -2.0630    3.1570 C   0  0  0  0  0  0  0  0  0  0  0  0
   -3.5010   -1.7340    3.5830 C   0  0  0  0  0  0  0  0  0  0  0  0
   -2.9980   -1.3560    5.2380 Cl  0  0  0  0  0  0  0  0  0  0  0  0
   -2.7240   -1.7790    2.5000 C   0  0  0  0  0  0  0  0  0  0  0  0
   -0.9980   -0.8390   -0.4170 C   0  0  0  0  0  0  0  0  0  0  0  0
   -0.3850   -1.7450    0.2610 O   0  0  0  0  0  0  0  0  0  0  0  0
   -0.2590    0.2610   -0.9300 C   0  0  2  0  0  0  0  0  0  0  0  0
   -0.4990    0.7620   -2.3450 C   0  0  0  0  0  0  0  0  0  0  0  0
    0.3450    2.0530   -2.2830 C   0  0  0  0  0  0  0  0  0  0  0  0
    1.4890    1.6860   -1.3200 C   0  0  0  0  0  0  0  0  0  0  0  0
    1.1200    0.3950   -0.7500 N   0  0  2  0  0  0  0  0  0  0  0  0
    2.0670   -0.5580   -0.9970 C   0  0  0  0  0  0  0  0  0  0  0  0
    1.7730   -1.8140   -1.5050 C   0  0  0  0  0  0  0  0  0  0  0  0
    2.6380   -2.8630   -1.6010 C   0  0  0  0  0  0  0  0  0  0  0  0
    3.9110   -2.6850   -1.1690 C   0  0  0  0  0  0  0  0  0  0  0  0
    4.2800   -1.4710   -0.6540 C   0  0  0  0  0  0  0  0  0  0  0  0
    3.3680   -0.3990   -0.5610 C   0  0  0  0  0  0  0  0  0  0  0  0
    3.9050    0.8210    0.0290 C   0  0  0  0  0  0  0  0  0  0  0  0
    5.2870    0.6530    0.5410 N   0  0  0  0  0  0  0  0  0  0  0  0
    5.5690   -0.1750    1.6500 C   0  0  0  0  0  0  0  0  0  0  0  0
    4.6270   -0.7710    2.2120 O   0  0  0  0  0  0  0  0  0  0  0  0
    6.9810   -0.3410    2.1540 C   0  0  0  0  0  0  0  0  0  0  0  0
    8.0630    0.1550    1.5870 C   0  0  0  0  0  0  0  0  0  0  0  0
    9.3160   -0.0530    2.1270 C   0  0  0  0  0  0  0  0  0  0  0  0
    8.9390   -1.0520    3.5890 S   0  0  0  0  0  0  0  0  0  0  0  0
    7.1910   -1.1080    3.3650 C   0  0  0  0  0  0  0  0  0  0  0  0
   -3.5390    1.1020   -0.6030 C   0  0  0  0  0  0  0  0  0  0  0  0
  2  1  1  1
  2  3  2  0
  2  4  2  0
  2  5  1  0
  5  6  2  0
  5 41  1  0
  6  7  1  0
  7  8  1  0
  7  9  2  0
  9 10  1  0
 10 11  1  0
 10 41  2  0
 11 12  1  0
 11 19  1  0
 12 13  1  0
 13 14  2  0
 13 18  1  0
 14 15  1  0
 15 16  1  0
 16 17  1  0
 16 18  2  0
 19 20  2  0
 21 19  1  6
 21 22  1  0
 21 25  1  0
 22 23  1  0
 23 24  1  0
 24 25  1  0
 25 26  1  6
 26 27  2  0
 26 31  1  0
 27 28  1  0
 28 29  2  0
 29 30  1  0
 30 31  2  0
 31 32  1  0
 32 33  1  0
 33 34  1  0
 34 35  2  0
 34 36  1  0
 36 37  1  0
 36 40  2  0
 37 38  2  0
 38 39  1  0
 39 40  1  0
M  CHG  1  25   1
M  END
