
     RDKit          3D

 41 45  0  0  0  0  0  0  0  0999 V2000
   -7.0170   -1.9810    0.4970 C   0  0  0  0  0  0  0  0  0  0  0  0
   -5.9090   -1.7310   -0.1360 C   0  0  0  0  0  0  0  0  0  0  0  0
   -4.6230   -1.5060    0.3070 C   0  0  0  0  0  0  0  0  0  0  0  0
   -4.1500   -1.4870    1.5220 C   0  0  0  0  0  0  0  0  0  0  0  0
   -4.8570   -1.7010    2.7690 C   0  0  0  0  0  0  0  0  0  0  0  0
   -5.1960   -3.4280    3.1210 Cl  0  0  0  0  0  0  0  0  0  0  0  0
   -3.8700   -1.2970   -0.8350 N   0  0  0  0  0  0  0  0  0  0  0  0
   -2.4630   -1.0130   -0.8450 C   0  0  0  0  0  0  0  0  0  0  0  0
   -2.1660    0.4500   -0.8130 C   0  0  1  0  0  0  0  0  0  0  0  0
   -2.6850    1.0330    0.3130 O   0  0  0  0  0  0  0  0  0  0  0  0
   -0.6880    0.7430   -0.8750 C   0  0  0  0  0  0  0  0  0  0  0  0
    0.0570    0.2520    0.2530 N   0  0  0  0  0  0  0  0  0  0  0  0
   -0.1650    0.8680    1.5460 C   0  0  0  0  0  0  0  0  0  0  0  0
    0.1210    2.3380    1.4820 C   0  0  0  0  0  0  0  0  0  0  0  0
   -0.8590    3.2260    1.8690 C   0  0  0  0  0  0  0  0  0  0  0  0
   -0.5910    4.5570    1.8020 C   0  0  0  0  0  0  0  0  0  0  0  0
    0.6400    5.0330    1.3560 C   0  0  0  0  0  0  0  0  0  0  0  0
    1.6210    4.1610    0.9700 C   0  0  0  0  0  0  0  0  0  0  0  0
    1.3410    2.8040    1.0400 C   0  0  0  0  0  0  0  0  0  0  0  0
    2.9660    4.6000    0.4770 C   0  0  0  0  0  0  0  0  0  0  0  0
    2.9400    6.0810    0.2350 C   0  0  0  0  0  0  0  0  0  0  0  0
    2.2180    6.8200    1.3370 C   0  0  0  0  0  0  0  0  0  0  0  0
    0.8610    6.4220    1.3090 O   0  0  0  0  0  0  0  0  0  0  0  0
    1.0070   -0.8270    0.1200 C   0  0  0  0  0  0  0  0  0  0  0  0
    1.4240   -1.5400   -0.9010 N   0  0  0  0  0  0  0  0  0  0  0  0
    2.2910   -2.4710   -0.7720 C   0  0  0  0  0  0  0  0  0  0  0  0
    2.7880   -3.3200   -1.9690 C   0  0  0  0  0  0  0  0  0  0  0  0
    3.9060   -4.0510   -1.6080 O   0  0  0  0  0  0  0  0  0  0  0  0
    5.1200   -3.6050   -1.1710 C   0  0  0  0  0  0  0  0  0  0  0  0
    5.5020   -2.3020   -0.9970 C   0  0  0  0  0  0  0  0  0  0  0  0
    6.7490   -1.9150   -0.5510 C   0  0  0  0  0  0  0  0  0  0  0  0
    7.6700   -2.8800   -0.2610 C   0  0  0  0  0  0  0  0  0  0  0  0
    7.3350   -4.2070   -0.4190 C   0  0  0  0  0  0  0  0  0  0  0  0
    6.0790   -4.5790   -0.8680 C   0  0  0  0  0  0  0  0  0  0  0  0
    5.6960   -6.2820   -1.0530 Cl  0  0  0  0  0  0  0  0  0  0  0  0
    2.8370   -2.7670    0.4890 C   0  0  0  0  0  0  0  0  0  0  0  0
    1.9410   -1.5240    1.5050 S   0  0  0  0  0  0  0  0  0  0  0  0
   -4.6450   -1.3890   -1.9150 C   0  0  0  0  0  0  0  0  0  0  0  0
   -4.2530   -1.2470   -3.1150 O   0  0  0  0  0  0  0  0  0  0  0  0
   -5.8850   -1.6510   -1.5180 N   0  0  0  0  0  0  0  0  0  0  0  0
   -7.0030   -1.8200   -2.4340 C   0  0  0  0  0  0  0  0  0  0  0  0
  1  2  2  0
  2  3  1  0
  2 40  1  0
  3  4  2  3
  3  7  1  0
  4  5  1  0
  5  6  1  0
  7  8  1  0
  7 38  1  0
  8  9  1  0
  9 10  1  1
  9 11  1  0
 11 12  1  0
 12 13  1  0
 12 24  1  0
 13 14  1  0
 14 15  2  0
 14 19  1  0
 15 16  1  0
 16 17  2  0
 17 18  1  0
 17 23  1  0
 18 19  2  0
 18 20  1  0
 20 21  1  0
 21 22  1  0
 22 23  1  0
 24 25  2  0
 24 37  1  0
 25 26  1  0
 26 27  1  0
 26 36  2  0
 27 28  1  0
 28 29  1  0
 29 30  2  0
 29 34  1  0
 30 31  1  0
 31 32  2  0
 32 33  1  0
 33 34  2  0
 34 35  1  0
 36 37  1  0
 38 39  2  0
 38 40  1  0
 40 41  1  0
M  CHG  1  25   1
M  END
