
     RDKit          3D

 31 33  0  0  0  0  0  0  0  0999 V2000
   -3.6230    0.5870   -2.4930 C   0  0  0  0  0  0  0  0  0  0  0  0
   -4.4350    0.5680   -1.2990 C   0  0  0  0  0  0  0  0  0  0  0  0
   -4.1790    0.4320   -0.0150 C   0  0  0  0  0  0  0  0  0  0  0  0
   -2.8660    0.2510    0.5290 C   0  0  0  0  0  0  0  0  0  0  0  0
   -2.6670    0.1230    1.7940 O   0  0  0  0  0  0  0  0  0  0  0  0
   -1.6560    0.1930   -0.2220 N   0  0  0  0  0  0  0  0  0  0  0  0
   -0.3880    0.0070    0.4340 C   0  0  0  0  0  0  0  0  0  0  0  0
    0.7350   -0.0480   -0.2500 C   0  0  0  0  0  0  0  0  0  0  0  0
    0.9490    0.0480   -1.6280 O   0  0  0  0  0  0  0  0  0  0  0  0
    2.3570   -0.0720   -1.9220 C   0  0  0  0  0  0  0  0  0  0  0  0
    2.9610    0.4850   -0.6760 C   0  0  2  0  0  0  0  0  0  0  0  0
    4.3690    0.2060   -0.4970 C   0  0  0  0  0  0  0  0  0  0  0  0
    5.1540    0.4170   -1.4580 O   0  0  0  0  0  0  0  0  0  0  0  0
    4.9140   -0.3020    0.7290 N   0  0  0  0  0  0  0  0  0  0  0  0
    6.3230   -0.3320    0.9610 C   0  0  1  0  0  0  0  0  0  0  0  0
    7.0350   -1.0690   -0.1020 C   0  0  0  0  0  0  0  0  0  0  0  0
    7.8440   -0.3090   -0.7400 N   0  0  0  0  0  0  0  0  0  0  0  0
    7.8230    0.9820   -0.2560 N   0  0  0  0  0  0  0  0  0  0  0  0
    6.8910    1.0470    0.8150 C   0  0  0  0  0  0  0  0  0  0  0  0
    6.6030    2.0620    1.5020 O   0  0  0  0  0  0  0  0  0  0  0  0
    4.0110   -0.7760    1.7070 C   0  0  0  0  0  0  0  0  0  0  0  0
    4.4270   -1.2400    2.7960 O   0  0  0  0  0  0  0  0  0  0  0  0
    2.5810   -0.7180    1.4320 C   0  0  0  0  0  0  0  0  0  0  0  0
    2.0720   -0.2350    0.3330 C   0  0  0  0  0  0  0  0  0  0  0  0
   -5.3500    0.4770    0.8480 C   0  0  0  0  0  0  0  0  0  0  0  0
   -5.4230    0.3770    2.1090 C   0  0  0  0  0  0  0  0  0  0  0  0
   -4.4870    0.1990    3.0770 O   0  0  0  0  0  0  0  0  0  0  0  0
   -6.5720    0.6660    0.1020 O   0  0  0  0  0  0  0  0  0  0  0  0
   -7.7240   -0.6430   -0.0210 P   0  0  0  0  0  0  0  0  0  0  0  0
   -7.9080   -1.5180    1.4400 O   0  0  0  0  0  0  0  0  0  0  0  0
   -7.3850   -1.6560   -1.3800 O   0  0  0  0  0  0  0  0  0  0  0  0
  1  2  1  0
  2  3  2  3
  3  4  1  0
  3 25  1  0
  4  5  2  0
  4  6  1  0
  6  7  1  0
  7  8  2  3
  8  9  1  0
  8 24  1  0
  9 10  1  0
 11 10  1  6
 11 12  1  0
 11 24  1  0
 12 13  2  0
 12 14  1  0
 15 14  1  6
 14 21  1  0
 15 16  1  0
 15 19  1  0
 16 17  2  0
 17 18  1  0
 18 19  1  0
 19 20  2  0
 21 22  2  0
 21 23  1  0
 23 24  2  0
 25 26  2  3
 25 28  1  0
 26 27  1  0
 28 29  1  0
 29 30  1  0
 29 31  1  0
M  END
