
     RDKit          3D

 31 33  0  0  0  0  0  0  0  0999 V2000
   -5.5860    2.4740   -1.0860 C   0  0  0  0  0  0  0  0  0  0  0  0
   -4.4190    1.6330   -0.6720 C   0  0  0  0  0  0  0  0  0  0  0  0
   -3.9420    0.6900   -1.5360 C   0  0  0  0  0  0  0  0  0  0  0  0
   -2.8580   -0.1340   -1.2290 C   0  0  0  0  0  0  0  0  0  0  0  0
   -2.4520   -1.0630   -2.1370 N   0  0  0  0  0  0  0  0  0  0  0  0
   -1.4380   -1.8790   -1.8810 C   0  0  0  0  0  0  0  0  0  0  0  0
   -0.9780   -2.8660   -2.7500 C   0  0  0  0  0  0  0  0  0  0  0  0
   -1.5780   -2.9480   -3.8520 O   0  0  0  0  0  0  0  0  0  0  0  0
    0.0440   -3.6570   -2.3930 N   0  0  0  0  0  0  0  0  0  0  0  0
    0.6470   -3.5230   -1.2010 C   0  0  0  0  0  0  0  0  0  0  0  0
    1.6000   -4.2990   -0.9290 O   0  0  0  0  0  0  0  0  0  0  0  0
    0.2310   -2.5760   -0.3270 N   0  0  0  0  0  0  0  0  0  0  0  0
   -0.7820   -1.7320   -0.5860 C   0  0  0  0  0  0  0  0  0  0  0  0
   -1.2020   -0.7990    0.3030 N   0  0  0  0  0  0  0  0  0  0  0  0
   -0.5550   -0.6120    1.5660 C   0  0  0  0  0  0  0  0  0  0  0  0
    0.5590    0.3810    1.6120 C   0  0  2  0  0  0  0  0  0  0  0  0
    0.1390    1.6580    1.1780 O   0  0  0  0  0  0  0  0  0  0  0  0
    1.7780    0.0100    0.8380 C   0  0  2  0  0  0  0  0  0  0  0  0
    2.3470   -1.1800    1.2560 O   0  0  0  0  0  0  0  0  0  0  0  0
    2.8070    1.1490    0.8610 C   0  0  2  0  0  0  0  0  0  0  0  0
    2.2070    2.3370    0.4340 O   0  0  0  0  0  0  0  0  0  0  0  0
    4.0040    0.7920    0.0260 C   0  0  0  0  0  0  0  0  0  0  0  0
    4.5760   -0.3620    0.4880 O   0  0  0  0  0  0  0  0  0  0  0  0
    5.9190   -0.8540   -0.3690 P   0  0  1  0  0  0  0  0  0  0  0  0
    6.7170    0.3060   -0.9170 O   0  0  0  0  0  0  0  0  0  0  0  0
    6.9800   -1.7530    0.6160 O   0  0  0  0  0  0  0  0  0  0  0  0
    5.5070   -1.8480   -1.6840 O   0  0  0  0  0  0  0  0  0  0  0  0
   -2.2600    0.0250   -0.0010 C   0  0  0  0  0  0  0  0  0  0  0  0
   -2.7350    0.9730    0.8780 C   0  0  0  0  0  0  0  0  0  0  0  0
   -3.8190    1.7840    0.5470 C   0  0  0  0  0  0  0  0  0  0  0  0
   -4.3220    2.8000    1.4980 C   0  0  0  0  0  0  0  0  0  0  0  0
  1  2  1  0
  2  3  2  0
  2 30  1  0
  3  4  1  0
  4  5  1  0
  4 28  2  0
  5  6  2  0
  6  7  1  0
  6 13  1  0
  7  8  2  0
  7  9  1  0
  9 10  1  0
 10 11  2  0
 10 12  1  0
 12 13  2  0
 13 14  1  0
 14 15  1  0
 14 28  1  0
 15 16  1  0
 16 17  1  6
 16 18  1  0
 18 19  1  1
 18 20  1  0
 20 21  1  6
 20 22  1  0
 22 23  1  0
 23 24  1  0
 24 25  2  0
 24 26  1  1
 24 27  1  0
 28 29  1  0
 29 30  2  0
 30 31  1  0
M  END
