
     RDKit          3D

 31 32  0  0  0  0  0  0  0  0999 V2000
    5.5810    0.5910    2.1500 C   0  0  0  0  0  0  0  0  0  0  0  0
    6.0910    0.6860    0.8060 C   0  0  0  0  0  0  0  0  0  0  0  0
    5.6290    0.6790   -0.4200 C   0  0  0  0  0  0  0  0  0  0  0  0
    6.7300    0.7830   -1.4600 C   0  0  0  0  0  0  0  0  0  0  0  0
    6.8980    0.8850   -2.6340 C   0  0  0  0  0  0  0  0  0  0  0  0
    8.3230    0.9120   -3.0610 O   0  0  0  0  0  0  0  0  0  0  0  0
    9.0660   -0.6950   -2.6430 P   0  0  0  0  0  0  0  0  0  0  0  0
   10.6500   -0.2870   -1.9690 O   0  0  0  0  0  0  0  0  0  0  0  0
    8.1240   -1.4340   -1.3700 O   0  0  0  0  0  0  0  0  0  0  0  0
    4.3090    0.6520   -0.9250 C   0  0  0  0  0  0  0  0  0  0  0  0
    3.6820    0.5700   -1.8890 O   0  0  0  0  0  0  0  0  0  0  0  0
    3.2250    0.7790    0.4380 N   0  0  0  0  0  0  0  0  0  0  0  0
    2.0090    0.3580   -0.2440 C   0  0  0  0  0  0  0  0  0  0  0  0
    1.8510   -0.2430   -1.2380 O   0  0  0  0  0  0  0  0  0  0  0  0
    1.0510    0.8860    0.7540 N   0  0  0  0  0  0  0  0  0  0  0  0
   -0.2100   -0.2370    0.3890 C   0  0  0  0  0  0  0  0  0  0  0  0
   -0.0620   -0.8200   -0.6240 O   0  0  0  0  0  0  0  0  0  0  0  0
   -1.1890   -0.2560    1.4430 C   0  0  0  0  0  0  0  0  0  0  0  0
   -1.2260    0.5110    2.4310 O   0  0  0  0  0  0  0  0  0  0  0  0
   -2.1280   -1.1780    1.4110 O   0  0  0  0  0  0  0  0  0  0  0  0
   -3.1680   -1.8910    1.7710 C   0  0  0  0  0  0  0  0  0  0  0  0
   -4.5200   -1.3100    1.9990 C   0  0  0  0  0  0  0  0  0  0  0  0
   -5.0770   -0.6330    0.8190 N   0  0  0  0  0  0  0  0  0  0  0  0
   -5.7680   -1.2890   -0.2260 C   0  0  0  0  0  0  0  0  0  0  0  0
   -6.2180   -0.4680   -1.3760 C   0  0  1  0  0  0  0  0  0  0  0  0
   -7.6750    0.0160   -1.1140 C   0  0  0  0  0  0  0  0  0  0  0  0
   -7.3290    0.8090    0.1940 C   0  0  0  0  0  0  0  0  0  0  0  0
   -5.9950    1.4060   -0.1110 C   0  0  2  0  0  0  0  0  0  0  0  0
   -5.5910    0.8380   -1.4530 N   0  0  0  0  0  0  0  0  0  0  0  0
   -4.8910    0.7910    0.7360 C   0  0  0  0  0  0  0  0  0  0  0  0
   -4.0740    1.4670    1.2130 O   0  0  0  0  0  0  0  0  0  0  0  0
  1  2  1  0
  2  3  2  3
  3  4  1  0
  3 10  1  0
  4  5  2  3
  5  6  1  0
  6  7  1  0
  7  8  1  0
  7  9  1  0
 10 11  2  0
 10 12  1  0
 12 13  1  0
 13 14  2  0
 13 15  1  0
 15 16  1  0
 16 17  2  0
 16 18  1  0
 18 19  2  0
 18 20  1  0
 20 21  1  0
 21 22  1  0
 22 23  1  0
 23 24  1  0
 23 30  1  0
 25 24  1  1
 25 26  1  0
 25 29  1  0
 26 27  1  0
 28 27  1  1
 28 29  1  0
 28 30  1  0
 30 31  2  0
M  END
