
     RDKit          3D

 31 33  0  0  0  0  0  0  0  0999 V2000
   -6.4940    2.3840    0.4470 C   0  0  0  0  0  0  0  0  0  0  0  0
   -5.5660    1.6170   -0.4640 C   0  0  1  0  0  0  0  0  0  0  0  0
   -4.1390    1.8270   -0.1040 C   0  0  0  0  0  0  0  0  0  0  0  0
   -3.5780    2.9450   -0.0680 O   0  0  0  0  0  0  0  0  0  0  0  0
   -3.5840    0.5510    0.1730 N   0  0  0  0  0  0  0  0  0  0  0  0
   -2.3850   -0.1720    0.5680 C   0  0  0  0  0  0  0  0  0  0  0  0
   -1.1200    0.4400    0.8400 C   0  0  0  0  0  0  0  0  0  0  0  0
   -0.1310   -0.3080    1.1430 O   0  0  0  0  0  0  0  0  0  0  0  0
   -0.7730    1.8130    0.8270 N   0  0  0  0  0  0  0  0  0  0  0  0
    0.5670    2.3170    1.1040 C   0  0  0  0  0  0  0  0  0  0  0  0
    1.6270    1.9240    0.1490 C   0  0  0  0  0  0  0  0  0  0  0  0
    1.8560    0.5740    0.0250 O   0  0  0  0  0  0  0  0  0  0  0  0
    3.1190    0.3080   -1.1270 P   0  0  0  0  0  0  0  0  0  0  0  0
    3.2780    1.5900   -2.2570 O   0  0  0  0  0  0  0  0  0  0  0  0
    4.7160   -0.1190   -0.3060 C   0  0  1  0  0  0  0  0  0  0  0  0
    5.1670   -1.4980   -0.7480 C   0  0  0  0  0  0  0  0  0  0  0  0
    6.6850   -1.5040   -0.8070 C   0  0  0  0  0  0  0  0  0  0  0  0
    7.1100   -0.4770   -1.8150 C   0  0  0  0  0  0  0  0  0  0  0  0
    6.4950    0.7410   -1.6800 O   0  0  0  0  0  0  0  0  0  0  0  0
    5.7840    0.9130   -0.5200 C   0  0  0  0  0  0  0  0  0  0  0  0
   -2.6370   -1.4960    0.6220 C   0  0  0  0  0  0  0  0  0  0  0  0
   -1.7620   -2.5960    0.9640 C   0  0  0  0  0  0  0  0  0  0  0  0
   -0.4180   -2.6540    1.3430 N   0  0  0  0  0  0  0  0  0  0  0  0
   -2.2720   -3.7860    0.9300 O   0  0  0  0  0  0  0  0  0  0  0  0
   -4.0200   -1.6980    0.2650 N   0  0  0  0  0  0  0  0  0  0  0  0
   -4.7550   -2.8930    0.1770 C   0  0  0  0  0  0  0  0  0  0  0  0
   -6.0040   -2.8220   -0.1700 O   0  0  0  0  0  0  0  0  0  0  0  0
   -4.3650   -4.1870    0.4050 O   0  0  0  0  0  0  0  0  0  0  0  0
   -4.6080   -0.4100   -0.0150 C   0  0  0  0  0  0  0  0  0  0  0  0
   -5.7360    0.1710   -0.3820 C   0  0  0  0  0  0  0  0  0  0  0  0
   -6.9260   -0.5340   -0.6510 O   0  0  0  0  0  0  0  0  0  0  0  0
  2  1  1  1
  2  3  1  0
  2 30  1  0
  3  4  2  0
  3  5  1  0
  5  6  1  0
  5 29  1  0
  6  7  1  0
  6 21  2  0
  7  8  2  0
  7  9  1  0
  9 10  1  0
 10 11  1  0
 11 12  1  0
 12 13  1  0
 13 14  1  0
 15 13  1  6
 15 16  1  0
 15 20  1  0
 16 17  1  0
 17 18  1  0
 18 19  1  0
 19 20  1  0
 21 22  1  0
 21 25  1  0
 22 23  1  0
 22 24  2  0
 25 26  1  0
 25 29  1  0
 26 27  2  0
 26 28  1  0
 29 30  2  0
 30 31  1  0
M  END
