
     RDKit          3D

 24 26  0  0  0  0  0  0  0  0999 V2000
   -3.5750    1.4280    2.4970 N   0  0  0  0  0  0  0  0  0  0  0  0
   -3.5390    1.1710    1.1050 C   0  0  0  0  0  0  0  0  0  0  0  0
   -2.5460    0.4090    0.5610 N   0  0  0  0  0  0  0  0  0  0  0  0
   -2.5520    0.1920   -0.7600 C   0  0  0  0  0  0  0  0  0  0  0  0
   -3.5210    0.7060   -1.5940 C   0  0  0  0  0  0  0  0  0  0  0  0
   -3.2930    0.3380   -2.8680 N   0  0  0  0  0  0  0  0  0  0  0  0
   -2.1580   -0.4200   -2.8200 C   0  0  0  0  0  0  0  0  0  0  0  0
   -1.7170   -0.5070   -1.5590 N   0  0  0  0  0  0  0  0  0  0  0  0
   -0.5500   -1.2200   -1.1110 C   0  0  2  0  0  0  0  0  0  0  0  0
   -0.0130   -0.7190    0.0510 O   0  0  0  0  0  0  0  0  0  0  0  0
    1.3610   -0.9310   -0.0570 C   0  0  2  0  0  0  0  0  0  0  0  0
    2.1420   -0.2210    1.0040 C   0  0  0  0  0  0  0  0  0  0  0  0
    3.4960   -0.5120    0.7860 O   0  0  0  0  0  0  0  0  0  0  0  0
    4.5000    0.2170    1.9010 P   0  0  1  0  0  0  0  0  0  0  0  0
    5.6790    0.9090    1.2550 O   0  0  0  0  0  0  0  0  0  0  0  0
    3.6560    1.2840    2.9230 O   0  0  0  0  0  0  0  0  0  0  0  0
    5.1320   -1.0100    2.9040 O   0  0  0  0  0  0  0  0  0  0  0  0
    1.6120   -0.3710   -1.4420 C   0  0  1  0  0  0  0  0  0  0  0  0
    2.8690   -0.6940   -1.9220 O   0  0  0  0  0  0  0  0  0  0  0  0
    0.5060   -1.0970   -2.1890 C   0  0  1  0  0  0  0  0  0  0  0  0
    1.0210   -2.3620   -2.5250 O   0  0  0  0  0  0  0  0  0  0  0  0
   -4.5190    1.4750   -1.0290 C   0  0  0  0  0  0  0  0  0  0  0  0
   -5.4200    1.9630   -1.7510 O   0  0  0  0  0  0  0  0  0  0  0  0
   -4.4930    1.6800    0.2990 N   0  0  0  0  0  0  0  0  0  0  0  0
  1  2  1  0
  2  3  2  0
  2 24  1  0
  3  4  1  0
  4  5  2  0
  4  8  1  0
  5  6  1  0
  5 22  1  0
  6  7  2  0
  7  8  1  0
  9  8  1  6
  9 10  1  0
  9 20  1  0
 10 11  1  0
 11 12  1  1
 11 18  1  0
 12 13  1  0
 13 14  1  0
 14 15  2  0
 14 16  1  1
 14 17  1  0
 18 19  1  6
 18 20  1  0
 20 21  1  1
 22 23  2  0
 22 24  1  0
M  END
