
     RDKit          3D

 13 13  0  0  0  0  0  0  0  0999 V2000
    3.0870    0.0710    1.7720 O   0  0  0  0  0  0  0  0  0  0  0  0
    3.1230    0.0620    0.5210 C   0  0  0  0  0  0  0  0  0  0  0  0
    4.3150    0.2650   -0.1700 O   0  0  0  0  0  0  0  0  0  0  0  0
    1.9580   -0.1530   -0.1640 O   0  0  0  0  0  0  0  0  0  0  0  0
    0.6980   -0.3690    0.4080 C   0  0  2  0  0  0  0  0  0  0  0  0
    0.1730   -1.7350   -0.0500 C   0  0  0  0  0  0  0  0  0  0  0  0
   -1.1760   -1.6530   -0.3800 O   0  0  0  0  0  0  0  0  0  0  0  0
   -1.8620   -0.9650    0.4970 O   0  0  0  0  0  0  0  0  0  0  0  0
   -1.6130    0.4060    0.4230 C   0  0  2  0  0  0  0  0  0  0  0  0
   -2.6500    1.0680   -0.3880 C   0  0  0  0  0  0  0  0  0  0  0  0
   -2.5740    2.3120   -0.5550 O   0  0  0  0  0  0  0  0  0  0  0  0
   -3.7010    0.3640   -0.9700 O   0  0  0  0  0  0  0  0  0  0  0  0
   -0.2530    0.6580   -0.1840 C   0  0  0  0  0  0  0  0  0  0  0  0
  1  2  2  0
  2  3  1  0
  2  4  1  0
  5  4  1  6
  5  6  1  0
  5 13  1  0
  6  7  1  0
  7  8  1  0
  8  9  1  0
  9 10  1  6
  9 13  1  0
 10 11  2  0
 10 12  1  0
M  END
