
     RDKit          3D

 13 13  0  0  0  0  0  0  0  0999 V2000
    4.6590   -0.4800   -0.6220 O   0  0  0  0  0  0  0  0  0  0  0  0
    3.5330   -0.1020   -0.2470 C   0  0  0  0  0  0  0  0  0  0  0  0
    3.3170    1.0190    0.7020 C   0  0  0  0  0  0  0  0  0  0  0  0
    1.9830    0.9660    1.0610 O   0  0  0  0  0  0  0  0  0  0  0  0
    1.3300    0.1590    0.1630 C   0  0  2  0  0  0  0  0  0  0  0  0
    0.4080   -0.7560    0.9540 C   0  0  0  0  0  0  0  0  0  0  0  0
   -0.3060   -1.6180    0.1590 O   0  0  0  0  0  0  0  0  0  0  0  0
   -1.1240   -0.9910   -0.7600 C   0  0  0  0  0  0  0  0  0  0  0  0
   -2.1590   -0.1010   -0.1130 C   0  0  0  0  0  0  0  0  0  0  0  0
   -2.9110    0.4640   -1.1440 O   0  0  0  0  0  0  0  0  0  0  0  0
   -3.8490    1.2640   -0.6790 O   0  0  0  0  0  0  0  0  0  0  0  0
   -4.3940    0.7060    0.3800 O   0  0  0  0  0  0  0  0  0  0  0  0
    2.2710   -0.5670   -0.5700 O   0  0  0  0  0  0  0  0  0  0  0  0
  1  2  2  0
  2  3  1  0
  2 13  1  0
  3  4  1  0
  4  5  1  0
  5  6  1  1
  5 13  1  0
  6  7  1  0
  7  8  1  0
  8  9  1  0
  9 10  1  0
 10 11  1  0
 11 12  1  0
M  END
