
     RDKit          3D

 13 12  0  0  0  0  0  0  0  0999 V2000
    0.4680   -2.1490   -1.0220 C   0  0  0  0  0  0  0  0  0  0  0  0
    0.1280   -1.1270    0.0240 C   0  0  2  0  0  0  0  0  0  0  0  0
   -0.8990   -0.3310   -0.4250 O   0  0  0  0  0  0  0  0  0  0  0  0
   -2.0140   -0.3290    0.3990 C   0  0  0  0  0  0  0  0  0  0  0  0
   -3.0400    0.5860   -0.2330 C   0  0  0  0  0  0  0  0  0  0  0  0
   -4.1770    0.6330    0.5380 O   0  0  0  0  0  0  0  0  0  0  0  0
   -5.0700    1.4270   -0.0090 O   0  0  0  0  0  0  0  0  0  0  0  0
    1.3260   -0.2990    0.3370 C   0  0  0  0  0  0  0  0  0  0  0  0
    2.3510   -0.8790    0.7590 O   0  0  0  0  0  0  0  0  0  0  0  0
    1.3720    1.0570    0.1900 O   0  0  0  0  0  0  0  0  0  0  0  0
    2.3610    1.8780    0.4320 O   0  0  0  0  0  0  0  0  0  0  0  0
    3.6100    1.3490    0.5640 C   0  0  0  0  0  0  0  0  0  0  0  0
    3.9460    0.6890   -0.6250 O   0  0  0  0  0  0  0  0  0  0  0  0
  2  1  1  6
  2  3  1  0
  2  8  1  0
  3  4  1  0
  4  5  1  0
  5  6  1  0
  6  7  1  0
  8  9  2  0
  8 10  1  0
 10 11  1  0
 11 12  1  0
 12 13  1  0
M  END
