
     RDKit          3D

 13 13  0  0  0  0  0  0  0  0999 V2000
   -4.1060    0.3050   -1.2280 O   0  0  0  0  0  0  0  0  0  0  0  0
   -2.9800    0.3000   -0.7150 C   0  0  0  0  0  0  0  0  0  0  0  0
   -2.5650   -0.6680    0.3630 C   0  0  0  0  0  0  0  0  0  0  0  0
   -1.3460   -1.2080    0.0750 O   0  0  0  0  0  0  0  0  0  0  0  0
   -0.2950   -0.3010    0.0330 C   0  0  1  0  0  0  0  0  0  0  0  0
    0.0790   -0.0780    1.3740 O   0  0  0  0  0  0  0  0  0  0  0  0
    0.8400   -0.9860   -0.6870 C   0  0  0  0  0  0  0  0  0  0  0  0
    2.0640   -0.1230   -0.8140 C   0  0  0  0  0  0  0  0  0  0  0  0
    2.5600    0.2560    0.4390 O   0  0  0  0  0  0  0  0  0  0  0  0
    3.6140    1.0000    0.3620 O   0  0  0  0  0  0  0  0  0  0  0  0
   -0.6770    0.9890   -0.5640 C   0  0  0  0  0  0  0  0  0  0  0  0
    0.1350    1.9420   -0.6330 O   0  0  0  0  0  0  0  0  0  0  0  0
   -1.9520    1.1990   -1.0750 O   0  0  0  0  0  0  0  0  0  0  0  0
  1  2  2  0
  2  3  1  0
  2 13  1  0
  3  4  1  0
  4  5  1  0
  5  6  1  1
  5  7  1  0
  5 11  1  0
  7  8  1  0
  8  9  1  0
  9 10  1  0
 11 12  2  0
 11 13  1  0
M  END
