
     RDKit          3D

 37 38  0  0  0  0  0  0  0  0999 V2000
   -7.2210   -4.3990   -0.8630 C   0  0  0  0  0  0  0  0  0  0  0  0
   -7.2850   -3.0890   -0.3100 O   0  0  0  0  0  0  0  0  0  0  0  0
   -8.3450   -2.6610    0.4630 C   0  0  0  0  0  0  0  0  0  0  0  0
   -9.2870   -3.4850    0.6740 O   0  0  0  0  0  0  0  0  0  0  0  0
   -8.3830   -1.3000    1.0210 C   0  0  2  0  0  0  0  0  0  0  0  0
   -9.5700   -0.5020    0.5060 C   0  0  0  0  0  0  0  0  0  0  0  0
   -9.5130    0.8720    1.1390 C   0  0  0  0  0  0  0  0  0  0  0  0
   -9.5800    0.7280    2.5260 O   0  0  0  0  0  0  0  0  0  0  0  0
   -7.2160   -0.6090    0.6290 O   0  0  0  0  0  0  0  0  0  0  0  0
   -6.3470   -0.0870    1.5690 C   0  0  0  0  0  0  0  0  0  0  0  0
   -6.6080   -0.2340    2.7860 O   0  0  0  0  0  0  0  0  0  0  0  0
   -5.1110    0.6440    1.2010 C   0  0  0  0  0  0  0  0  0  0  0  0
   -5.0270    0.6810   -0.2990 C   0  0  0  0  0  0  0  0  0  0  0  0
   -3.8120    1.3990   -0.8150 C   0  0  0  0  0  0  0  0  0  0  0  0
   -2.5360    0.7390   -0.3310 C   0  0  0  0  0  0  0  0  0  0  0  0
   -1.3920    1.4480   -0.8410 N   0  0  0  0  0  0  0  0  0  0  0  0
   -0.0560    1.0190   -0.5240 C   0  0  0  0  0  0  0  0  0  0  0  0
    0.1260    0.0190    0.2040 O   0  0  0  0  0  0  0  0  0  0  0  0
    1.0740    1.7110   -1.0230 N   0  0  0  0  0  0  0  0  0  0  0  0
    2.4330    1.4150   -0.8020 C   0  0  0  0  0  0  0  0  0  0  0  0
    2.9080    0.3810   -0.0430 C   0  0  0  0  0  0  0  0  0  0  0  0
    4.2780    0.1450    0.1350 C   0  0  0  0  0  0  0  0  0  0  0  0
    4.9370   -0.7540    0.7960 O   0  0  0  0  0  0  0  0  0  0  0  0
    6.2540   -0.5810    0.6740 C   0  0  0  0  0  0  0  0  0  0  0  0
    7.1900   -1.4700    1.3280 C   0  0  0  0  0  0  0  0  0  0  0  0
    8.4920   -1.4050    1.3080 C   0  0  0  0  0  0  0  0  0  0  0  0
    9.3290   -2.4140    2.0470 C   0  0  0  0  0  0  0  0  0  0  0  0
   10.2290   -3.1510    1.0650 C   0  0  0  0  0  0  0  0  0  0  0  0
   11.0800   -2.2750    0.4040 O   0  0  0  0  0  0  0  0  0  0  0  0
    6.4600    0.5120   -0.1270 C   0  0  0  0  0  0  0  0  0  0  0  0
    7.7460    1.0940   -0.5620 C   0  0  0  0  0  0  0  0  0  0  0  0
    7.5360    2.2320   -1.3820 O   0  0  0  0  0  0  0  0  0  0  0  0
    5.1980    0.9770   -0.4720 C   0  0  0  0  0  0  0  0  0  0  0  0
    4.6970    2.0100   -1.2300 C   0  0  0  0  0  0  0  0  0  0  0  0
    3.3560    2.2570   -1.4160 C   0  0  0  0  0  0  0  0  0  0  0  0
    2.9370    3.3340   -2.2060 O   0  0  0  0  0  0  0  0  0  0  0  0
    3.9150    4.1600   -2.8080 C   0  0  0  0  0  0  0  0  0  0  0  0
  1  2  1  0
  2  3  1  0
  3  4  2  0
  3  5  1  0
  5  6  1  6
  5  9  1  0
  6  7  1  0
  7  8  1  0
  9 10  1  0
 10 11  2  0
 10 12  1  0
 12 13  1  0
 13 14  1  0
 14 15  1  0
 15 16  1  0
 16 17  1  0
 17 18  2  0
 17 19  1  0
 19 20  1  0
 20 21  2  0
 20 35  1  0
 21 22  1  0
 22 23  1  0
 22 33  2  0
 23 24  1  0
 24 25  1  0
 24 30  2  0
 25 26  2  3
 26 27  1  0
 27 28  1  0
 28 29  1  0
 30 31  1  0
 30 33  1  0
 31 32  1  0
 33 34  1  0
 34 35  2  0
 35 36  1  0
 36 37  1  0
M  END
