
     RDKit          3D

 37 38  0  0  0  0  0  0  0  0999 V2000
   -5.2820    2.7340    2.9250 C   0  0  0  0  0  0  0  0  0  0  0  0
   -3.9270    2.7600    3.5620 C   0  0  0  0  0  0  0  0  0  0  0  0
   -2.8300    2.6440    2.8020 O   0  0  0  0  0  0  0  0  0  0  0  0
   -2.2230    1.7280    1.9720 C   0  0  0  0  0  0  0  0  0  0  0  0
   -0.9220    2.1690    1.5340 N   0  0  0  0  0  0  0  0  0  0  0  0
   -2.7210    0.5980    1.6020 C   0  0  0  0  0  0  0  0  0  0  0  0
   -4.0420    0.3980    2.1850 O   0  0  0  0  0  0  0  0  0  0  0  0
   -2.2810   -0.4750    0.7840 C   0  0  0  0  0  0  0  0  0  0  0  0
   -3.0780   -1.5440    0.5440 C   0  0  0  0  0  0  0  0  0  0  0  0
   -4.4050   -1.7500    1.0350 C   0  0  0  0  0  0  0  0  0  0  0  0
   -4.6580   -2.6940    2.0290 C   0  0  0  0  0  0  0  0  0  0  0  0
   -5.9620   -2.9150    2.4530 C   0  0  0  0  0  0  0  0  0  0  0  0
   -6.2140   -3.8690    3.4560 O   0  0  0  0  0  0  0  0  0  0  0  0
   -7.0290   -2.2370    1.9320 C   0  0  0  0  0  0  0  0  0  0  0  0
   -6.7780   -1.2900    0.9350 C   0  0  0  0  0  0  0  0  0  0  0  0
   -5.4740   -1.0770    0.5170 C   0  0  0  0  0  0  0  0  0  0  0  0
   -5.2260   -0.1230   -0.4960 O   0  0  0  0  0  0  0  0  0  0  0  0
   -6.3480    0.5820   -1.0310 C   0  0  0  0  0  0  0  0  0  0  0  0
   -0.9640   -0.5940    0.1520 C   0  0  0  0  0  0  0  0  0  0  0  0
   -0.7460   -1.6810   -0.5470 O   0  0  0  0  0  0  0  0  0  0  0  0
    0.0690    0.2410    0.1780 O   0  0  0  0  0  0  0  0  0  0  0  0
    1.3100    0.3180   -0.3190 C   0  0  0  0  0  0  0  0  0  0  0  0
    1.4440    0.5050   -1.7910 C   0  0  2  0  0  0  0  0  0  0  0  0
    0.7700    1.6660   -2.1670 O   0  0  0  0  0  0  0  0  0  0  0  0
    1.0600   -0.6100   -2.6740 C   0  0  0  0  0  0  0  0  0  0  0  0
    1.8560   -1.8790   -2.3740 C   0  0  0  0  0  0  0  0  0  0  0  0
    3.2890   -1.5550   -2.8260 C   0  0  0  0  0  0  0  0  0  0  0  0
    3.7090   -0.3830   -2.0710 N   0  0  0  0  0  0  0  0  0  0  0  0
    4.9580   -0.4560   -1.3700 C   0  0  0  0  0  0  0  0  0  0  0  0
    5.6700   -1.4960   -1.4100 O   0  0  0  0  0  0  0  0  0  0  0  0
    5.4670    0.6830   -0.5690 C   0  0  0  0  0  0  0  0  0  0  0  0
    6.7760    0.2910    0.0620 C   0  0  0  0  0  0  0  0  0  0  0  0
    7.6930   -0.0180   -0.9160 O   0  0  0  0  0  0  0  0  0  0  0  0
    7.9690    1.0250   -1.7840 C   0  0  0  0  0  0  0  0  0  0  0  0
    8.9130    0.5730   -2.7130 O   0  0  0  0  0  0  0  0  0  0  0  0
    8.4350   -0.5110   -3.4370 C   0  0  0  0  0  0  0  0  0  0  0  0
    2.9520    0.8200   -1.9840 C   0  0  0  0  0  0  0  0  0  0  0  0
  1  2  1  0
  2  3  1  0
  3  4  1  0
  4  5  1  0
  4  6  2  3
  6  7  1  0
  6  8  1  0
  8  9  2  3
  8 19  1  0
  9 10  1  0
 10 11  2  0
 10 16  1  0
 11 12  1  0
 12 13  1  0
 12 14  2  0
 14 15  1  0
 15 16  2  0
 16 17  1  0
 17 18  1  0
 19 20  2  0
 19 21  1  0
 21 22  1  0
 22 23  1  0
 23 24  1  6
 23 25  1  0
 23 37  1  0
 25 26  1  0
 26 27  1  0
 27 28  1  0
 28 29  1  0
 28 37  1  0
 29 30  2  0
 29 31  1  0
 31 32  1  0
 32 33  1  0
 33 34  1  0
 34 35  1  0
 35 36  1  0
M  END
