
     RDKit          3D

 36 39  0  0  0  0  0  0  0  0999 V2000
   -0.4190   -3.8250   -1.2620 C   0  0  0  0  0  0  0  0  0  0  0  0
    0.5730   -2.8960   -0.6240 C   0  0  0  0  0  0  0  0  0  0  0  0
    1.8740   -3.3500   -0.6790 C   0  0  0  0  0  0  0  0  0  0  0  0
    2.8640   -2.5080   -0.1520 C   0  0  0  0  0  0  0  0  0  0  0  0
    2.5400   -1.3040    0.3790 C   0  0  0  0  0  0  0  0  0  0  0  0
    3.6030   -0.3960    0.7960 N   0  0  0  0  0  0  0  0  0  0  0  0
    4.8030   -0.3910    0.0500 C   0  0  0  0  0  0  0  0  0  0  0  0
    4.9150   -1.1690   -0.9560 O   0  0  0  0  0  0  0  0  0  0  0  0
    5.9540    0.4350    0.3210 C   0  0  0  0  0  0  0  0  0  0  0  0
    6.8790    0.0110    1.2840 C   0  0  0  0  0  0  0  0  0  0  0  0
    8.0420    0.6970    1.5480 C   0  0  0  0  0  0  0  0  0  0  0  0
    8.2560    1.8280    0.8150 N   0  0  0  0  0  0  0  0  0  0  0  0
    7.4090    2.2810   -0.1150 C   0  0  0  0  0  0  0  0  0  0  0  0
    7.7630    3.5330   -0.8640 C   0  0  2  0  0  0  0  0  0  0  0  0
    8.8990    3.3650   -1.6280 F   0  0  0  0  0  0  0  0  0  0  0  0
    7.9190    4.6040   -0.0090 F   0  0  0  0  0  0  0  0  0  0  0  0
    6.7190    3.8440   -1.7500 F   0  0  0  0  0  0  0  0  0  0  0  0
    6.2470    1.5840   -0.3710 C   0  0  0  0  0  0  0  0  0  0  0  0
    1.2400   -0.8830    0.4270 C   0  0  0  0  0  0  0  0  0  0  0  0
    0.2370   -1.6950   -0.0880 C   0  0  0  0  0  0  0  0  0  0  0  0
   -1.1690   -1.2460   -0.0500 C   0  0  0  0  0  0  0  0  0  0  0  0
   -2.1760   -2.1280    0.1930 C   0  0  0  0  0  0  0  0  0  0  0  0
   -3.5450   -1.7520    0.2060 C   0  0  0  0  0  0  0  0  0  0  0  0
   -4.4480   -2.7300    0.4490 O   0  0  0  0  0  0  0  0  0  0  0  0
   -5.7880   -2.8510    0.5460 C   0  0  0  0  0  0  0  0  0  0  0  0
   -6.5290   -2.0680    1.5920 C   0  0  0  0  0  0  0  0  0  0  0  0
   -7.8970   -2.4100    1.4580 O   0  0  0  0  0  0  0  0  0  0  0  0
   -3.8080   -0.4600   -0.0330 N   0  0  0  0  0  0  0  0  0  0  0  0
   -2.8590    0.4390   -0.2710 C   0  0  0  0  0  0  0  0  0  0  0  0
   -3.1810    1.8070   -0.5040 N   0  0  0  0  0  0  0  0  0  0  0  0
   -2.1180    2.8240   -0.4190 C   0  0  0  0  0  0  0  0  0  0  0  0
   -2.7920    4.1010    0.0260 C   0  0  0  0  0  0  0  0  0  0  0  0
   -3.8750    3.8350    0.8690 O   0  0  0  0  0  0  0  0  0  0  0  0
   -4.9480    3.3940    0.0650 C   0  0  0  0  0  0  0  0  0  0  0  0
   -4.4970    2.2750   -0.8420 C   0  0  0  0  0  0  0  0  0  0  0  0
   -1.4980    0.0700   -0.2890 C   0  0  0  0  0  0  0  0  0  0  0  0
  1  2  1  0
  2  3  2  0
  2 20  1  0
  3  4  1  0
  4  5  2  0
  5  6  1  0
  5 19  1  0
  6  7  1  0
  7  8  2  0
  7  9  1  0
  9 10  2  0
  9 18  1  0
 10 11  1  0
 11 12  2  0
 12 13  1  0
 13 14  1  0
 13 18  2  0
 14 15  1  6
 14 16  1  0
 14 17  1  0
 19 20  2  0
 20 21  1  0
 21 22  2  0
 21 36  1  0
 22 23  1  0
 23 24  1  0
 23 28  2  0
 24 25  1  0
 25 26  1  0
 26 27  1  0
 28 29  1  0
 29 30  1  0
 29 36  2  0
 30 31  1  0
 30 35  1  0
 31 32  1  0
 32 33  1  0
 33 34  1  0
 34 35  1  0
M  END
