
     RDKit          3D

 31 33  0  0  0  0  0  0  0  0999 V2000
    1.9680    3.6130    1.9140 C   0  0  0  0  0  0  0  0  0  0  0  0
    2.4160    2.5290    1.1340 O   0  0  0  0  0  0  0  0  0  0  0  0
    1.5660    1.6470    0.4960 C   0  0  0  0  0  0  0  0  0  0  0  0
    0.3350    1.9040    0.6800 O   0  0  0  0  0  0  0  0  0  0  0  0
    1.9470    0.5080   -0.3140 C   0  0  0  0  0  0  0  0  0  0  0  0
    1.0140   -0.2790   -0.8340 C   0  0  0  0  0  0  0  0  0  0  0  0
   -0.4040   -0.1640   -0.7100 C   0  0  0  0  0  0  0  0  0  0  0  0
   -1.4550    1.2790   -1.1290 S   0  0  0  0  0  0  0  0  0  0  0  0
   -3.0170    0.6090   -0.6850 C   0  0  0  0  0  0  0  0  0  0  0  0
   -2.6790   -0.6440   -0.2380 C   0  0  0  0  0  0  0  0  0  0  0  0
   -1.3990   -1.0400   -0.2520 C   0  0  0  0  0  0  0  0  0  0  0  0
   -0.8330   -2.4060    0.1660 C   0  0  0  0  0  0  0  0  0  0  0  0
    0.0160   -2.3470    1.6880 Cl  0  0  0  0  0  0  0  0  0  0  0  0
   -3.7560   -1.3480    0.5550 C   0  0  0  0  0  0  0  0  0  0  0  0
   -3.6060   -2.7360    1.0540 C   0  0  0  0  0  0  0  0  0  0  0  0
   -4.8710   -0.6890    0.7840 C   0  0  0  0  0  0  0  0  0  0  0  0
   -5.2070    0.6890    0.3840 C   0  0  0  0  0  0  0  0  0  0  0  0
   -4.5860    1.1990   -0.9830 S   0  0  0  0  0  0  0  0  0  0  0  0
   -5.6360    0.3280   -1.9370 C   0  0  0  0  0  0  0  0  0  0  0  0
   -4.8980    2.7560   -0.4740 O   0  0  0  0  0  0  0  0  0  0  0  0
    3.3530    0.0830   -0.4920 C   0  0  0  0  0  0  0  0  0  0  0  0
    4.3430    0.9980   -0.6600 C   0  0  0  0  0  0  0  0  0  0  0  0
    4.1550    2.4500   -0.9510 C   0  0  0  0  0  0  0  0  0  0  0  0
    5.6420    0.5530   -0.6700 N   0  0  0  0  0  0  0  0  0  0  0  0
    5.9370   -0.7410   -0.5220 C   0  0  0  0  0  0  0  0  0  0  0  0
    7.7640   -1.3340   -0.5410 Br  0  0  0  0  0  0  0  0  0  0  0  0
    4.9660   -1.6960   -0.3540 C   0  0  0  0  0  0  0  0  0  0  0  0
    5.3040   -3.1160   -0.1950 C   0  0  0  0  0  0  0  0  0  0  0  0
    5.4940   -3.5510    0.9550 O   0  0  0  0  0  0  0  0  0  0  0  0
    3.6440   -1.2790   -0.3370 C   0  0  0  0  0  0  0  0  0  0  0  0
    2.7730   -2.1500   -0.1790 O   0  0  0  0  0  0  0  0  0  0  0  0
  1  2  1  0
  2  3  1  0
  3  4  2  0
  3  5  1  0
  5  6  2  3
  5 21  1  0
  6  7  1  0
  7  8  1  0
  7 11  2  0
  8  9  1  0
  9 10  2  0
  9 18  1  0
 10 11  1  0
 10 14  1  0
 11 12  1  0
 12 13  1  0
 14 15  1  0
 14 16  2  0
 16 17  1  0
 17 18  1  0
 18 19  1  0
 18 20  2  0
 21 22  2  0
 21 30  1  0
 22 23  1  0
 22 24  1  0
 24 25  1  0
 25 26  1  0
 25 27  2  0
 27 28  1  0
 27 30  1  0
 28 29  2  0
 30 31  2  0
M  END
