
     RDKit          3D

 29 31  0  0  0  0  0  0  0  0999 V2000
    2.2060   -0.4530    0.0380 O   0  0  0  0  0  0  0  0  0  0  0  0
    1.9460   -0.6720   -1.1590 C   0  0  0  0  0  0  0  0  0  0  0  0
    2.9830   -0.6260   -2.1090 N   0  0  0  0  0  0  0  0  0  0  0  0
    4.3500   -0.3390   -1.7840 C   0  0  0  0  0  0  0  0  0  0  0  0
    4.9430   -1.3390   -0.8100 C   0  0  0  0  0  0  0  0  0  0  0  0
    6.3840   -0.9630   -0.5250 C   0  0  0  0  0  0  0  0  0  0  0  0
    6.5100    0.3900    0.0700 C   0  0  0  0  0  0  0  0  0  0  0  0
    6.4740    0.5440    1.4400 C   0  0  0  0  0  0  0  0  0  0  0  0
    6.5900    1.7950    2.0380 C   0  0  0  0  0  0  0  0  0  0  0  0
    6.7440    2.9270    1.2700 C   0  0  0  0  0  0  0  0  0  0  0  0
    6.7810    2.7820   -0.0970 C   0  0  0  0  0  0  0  0  0  0  0  0
    6.6660    1.5390   -0.6820 C   0  0  0  0  0  0  0  0  0  0  0  0
    0.5900   -0.9580   -1.4840 N   0  0  0  0  0  0  0  0  0  0  0  0
   -0.4850   -1.0120   -0.5530 C   0  0  2  0  0  0  0  0  0  0  0  0
   -1.1900   -2.3440   -0.4980 C   0  0  0  0  0  0  0  0  0  0  0  0
   -2.5650   -2.1670    0.0630 C   0  0  0  0  0  0  0  0  0  0  0  0
   -3.4660   -1.2590   -0.6920 C   0  0  1  0  0  0  0  0  0  0  0  0
   -4.1400   -0.3500    0.1330 O   0  0  0  0  0  0  0  0  0  0  0  0
   -5.5100   -0.5080   -0.0430 C   0  0  0  0  0  0  0  0  0  0  0  0
   -6.2890    0.4230    0.8000 C   0  0  0  0  0  0  0  0  0  0  0  0
   -7.6650    0.3590    0.7100 C   0  0  0  0  0  0  0  0  0  0  0  0
   -8.2520   -0.5280   -0.1240 F   0  0  0  0  0  0  0  0  0  0  0  0
   -8.4410    1.1950    1.4660 C   0  0  0  0  0  0  0  0  0  0  0  0
   -7.8220    2.0870    2.3050 C   0  0  0  0  0  0  0  0  0  0  0  0
   -6.4530    2.1650    2.4080 C   0  0  0  0  0  0  0  0  0  0  0  0
   -5.6700    1.3150    1.6400 C   0  0  0  0  0  0  0  0  0  0  0  0
   -4.3270    1.3880    1.7370 F   0  0  0  0  0  0  0  0  0  0  0  0
   -2.6470   -0.4610   -1.6820 C   0  0  0  0  0  0  0  0  0  0  0  0
   -1.4630    0.1030   -0.9240 C   0  0  0  0  0  0  0  0  0  0  0  0
  1  2  2  0
  2  3  1  0
  2 13  1  0
  3  4  1  0
  4  5  1  0
  5  6  1  0
  6  7  1  0
  7  8  2  0
  7 12  1  0
  8  9  1  0
  9 10  2  0
 10 11  1  0
 11 12  2  0
 14 13  1  6
 14 15  1  0
 14 29  1  0
 15 16  1  0
 16 17  1  0
 17 18  1  1
 17 28  1  0
 18 19  1  0
 19 20  1  0
 20 21  2  0
 20 26  1  0
 21 22  1  0
 21 23  1  0
 23 24  2  0
 24 25  1  0
 25 26  2  0
 26 27  1  0
 28 29  1  0
M  END
