
     RDKit          3D

 31 34  0  0  0  0  0  0  0  0999 V2000
    7.0550    1.1760   -0.8800 C   0  0  0  0  0  0  0  0  0  0  0  0
    5.9510    0.2940   -0.3980 C   0  0  0  0  0  0  0  0  0  0  0  0
    4.9170   -0.0650   -1.2430 C   0  0  0  0  0  0  0  0  0  0  0  0
    3.8620   -0.8790   -0.8640 C   0  0  0  0  0  0  0  0  0  0  0  0
    3.8650   -1.3490    0.4410 C   0  0  0  0  0  0  0  0  0  0  0  0
    4.9010   -0.9990    1.3150 C   0  0  0  0  0  0  0  0  0  0  0  0
    5.9250   -0.1880    0.8890 C   0  0  0  0  0  0  0  0  0  0  0  0
    6.9370    0.1460    1.7640 O   0  0  0  0  0  0  0  0  0  0  0  0
    2.7710   -2.2080    0.8690 C   0  0  0  0  0  0  0  0  0  0  0  0
    2.7550   -2.6380    2.0290 O   0  0  0  0  0  0  0  0  0  0  0  0
    1.7430   -2.5240   -0.0900 N   0  0  0  0  0  0  0  0  0  0  0  0
    1.9230   -2.2780   -1.4950 C   0  0  1  0  0  0  0  0  0  0  0  0
    0.5840   -1.9330   -2.0340 C   0  0  0  0  0  0  0  0  0  0  0  0
   -0.3700   -1.0970   -1.5150 C   0  0  0  0  0  0  0  0  0  0  0  0
   -1.5140   -0.9480   -2.2030 C   0  0  0  0  0  0  0  0  0  0  0  0
   -2.6210   -0.0620   -1.7270 C   0  0  0  0  0  0  0  0  0  0  0  0
   -3.6770    0.0580   -2.3880 O   0  0  0  0  0  0  0  0  0  0  0  0
   -2.4960    0.8640   -0.2080 S   0  0  0  0  0  0  0  0  0  0  0  0
   -3.9670    1.8140    0.0990 C   0  0  0  0  0  0  0  0  0  0  0  0
   -4.1120    3.0980   -0.3670 C   0  0  0  0  0  0  0  0  0  0  0  0
   -5.2640    3.8170   -0.1150 C   0  0  0  0  0  0  0  0  0  0  0  0
   -5.4290    5.6070   -0.7810 Br  0  0  0  0  0  0  0  0  0  0  0  0
   -6.2550    3.2030    0.6150 C   0  0  0  0  0  0  0  0  0  0  0  0
   -6.1300    1.9070    1.0950 C   0  0  0  0  0  0  0  0  0  0  0  0
   -4.9770    1.1970    0.8390 C   0  0  0  0  0  0  0  0  0  0  0  0
   -4.8020   -0.0970    1.2940 O   0  0  0  0  0  0  0  0  0  0  0  0
   -5.7560   -0.8150    2.0450 C   0  0  0  0  0  0  0  0  0  0  0  0
   -7.2370   -0.9570    1.0440 Cl  0  0  0  0  0  0  0  0  0  0  0  0
   -1.6730   -1.6290   -3.3750 C   0  0  0  0  0  0  0  0  0  0  0  0
   -0.1180   -2.5210   -3.4970 S   0  0  0  0  0  0  0  0  0  0  0  0
    2.8430   -1.2290   -1.7040 O   0  0  0  0  0  0  0  0  0  0  0  0
  1  2  1  0
  2  3  2  0
  2  7  1  0
  3  4  1  0
  4  5  2  0
  4 31  1  0
  5  6  1  0
  5  9  1  0
  6  7  2  0
  7  8  1  0
  9 10  2  0
  9 11  1  0
 11 12  1  0
 12 13  1  1
 12 31  1  0
 13 14  2  0
 13 30  1  0
 14 15  1  0
 15 16  1  0
 15 29  2  0
 16 17  2  0
 16 18  1  0
 18 19  1  0
 19 20  2  0
 19 25  1  0
 20 21  1  0
 21 22  1  0
 21 23  2  0
 23 24  1  0
 24 25  2  0
 25 26  1  0
 26 27  1  0
 27 28  1  0
 29 30  1  0
M  END
