
     RDKit          3D

 30 32  0  0  0  0  0  0  0  0999 V2000
   -6.3600    2.6710    1.3770 C   0  0  0  0  0  0  0  0  0  0  0  0
   -5.4320    1.9310    1.6800 O   0  0  0  0  0  0  0  0  0  0  0  0
   -4.4870    1.1040    2.1630 C   0  0  0  0  0  0  0  0  0  0  0  0
   -4.7070    0.6360    3.4450 N   0  0  0  0  0  0  0  0  0  0  0  0
   -3.8560   -0.2030    4.0050 C   0  0  0  0  0  0  0  0  0  0  0  0
   -2.7280   -0.6480    3.3750 C   0  0  0  0  0  0  0  0  0  0  0  0
   -1.6190   -1.7630    4.1410 Cl  0  0  0  0  0  0  0  0  0  0  0  0
   -2.4990   -0.1780    2.0990 C   0  0  0  0  0  0  0  0  0  0  0  0
   -3.3790    0.7100    1.4710 C   0  0  0  0  0  0  0  0  0  0  0  0
   -2.9730    1.3960   -0.0700 S   0  0  2  0  0  0  0  0  0  0  0  0
   -1.8180    2.3770    0.0610 O   0  0  0  0  0  0  0  0  0  0  0  0
   -4.1110    2.2180   -0.6170 O   0  0  0  0  0  0  0  0  0  0  0  0
   -2.5540    0.2400   -1.2620 N   0  0  0  0  0  0  0  0  0  0  0  0
   -1.4730   -0.6670   -1.1050 C   0  0  0  0  0  0  0  0  0  0  0  0
   -1.8320   -1.9950   -0.8100 C   0  0  0  0  0  0  0  0  0  0  0  0
   -0.8340   -2.9180   -0.6550 C   0  0  0  0  0  0  0  0  0  0  0  0
    0.4760   -2.5510   -0.7830 C   0  0  0  0  0  0  0  0  0  0  0  0
    1.4660   -3.4420   -0.6410 F   0  0  0  0  0  0  0  0  0  0  0  0
    0.8450   -1.1980   -1.0800 C   0  0  0  0  0  0  0  0  0  0  0  0
    2.2180   -0.9130   -1.1500 C   0  0  0  0  0  0  0  0  0  0  0  0
    3.4570   -0.6430   -1.2270 C   0  0  0  0  0  0  0  0  0  0  0  0
    4.8230   -0.3470   -1.3000 C   0  0  0  0  0  0  0  0  0  0  0  0
    5.5360    0.0760   -0.1510 C   0  0  0  0  0  0  0  0  0  0  0  0
    6.8120    0.3520   -0.1910 N   0  0  0  0  0  0  0  0  0  0  0  0
    7.5790    0.2710   -1.2990 C   0  0  0  0  0  0  0  0  0  0  0  0
    8.9440    0.6130   -1.3000 N   0  0  0  0  0  0  0  0  0  0  0  0
    6.9120   -0.1370   -2.4170 N   0  0  0  0  0  0  0  0  0  0  0  0
    5.6270   -0.4270   -2.4310 C   0  0  0  0  0  0  0  0  0  0  0  0
   -0.1630   -0.3000   -1.2320 C   0  0  0  0  0  0  0  0  0  0  0  0
    0.1670    0.9950   -1.5310 F   0  0  0  0  0  0  0  0  0  0  0  0
  1  2  1  0
  2  3  1  0
  3  4  2  0
  3  9  1  0
  4  5  1  0
  5  6  2  0
  6  7  1  0
  6  8  1  0
  8  9  2  0
  9 10  1  0
 10 11  2  0
 10 12  2  0
 10 13  1  6
 13 14  1  0
 14 15  2  0
 14 29  1  0
 15 16  1  0
 16 17  2  0
 17 18  1  0
 17 19  1  0
 19 20  1  0
 19 29  2  0
 20 21  3  0
 21 22  1  0
 22 23  2  0
 22 28  1  0
 23 24  1  0
 24 25  2  0
 25 26  1  0
 25 27  1  0
 27 28  2  0
 29 30  1  0
M  END
