
     RDKit          3D

 30 32  0  0  0  0  0  0  0  0999 V2000
   -7.1090    1.5690   -0.1500 C   0  0  0  0  0  0  0  0  0  0  0  0
   -6.3790    1.3600   -1.2150 C   0  0  0  0  0  0  0  0  0  0  0  0
   -4.9130    1.2610   -1.1370 C   0  0  0  0  0  0  0  0  0  0  0  0
   -4.4400    1.3410    0.2890 C   0  0  2  0  0  0  0  0  0  0  0  0
   -2.9040    1.2470    0.2610 C   0  0  0  0  0  0  0  0  0  0  0  0
   -2.6020   -0.0740   -0.1830 N   0  0  0  0  0  0  0  0  0  0  0  0
   -1.4050   -0.2890   -0.8820 C   0  0  0  0  0  0  0  0  0  0  0  0
   -0.1960   -0.1010   -0.0340 C   0  0  0  0  0  0  0  0  0  0  0  0
   -0.3890    0.2190    1.1500 O   0  0  0  0  0  0  0  0  0  0  0  0
    1.0930   -0.2840   -0.5730 N   0  0  0  0  0  0  0  0  0  0  0  0
    2.2740   -0.1390    0.1440 C   0  0  0  0  0  0  0  0  0  0  0  0
    2.3380   -0.1350    1.5000 C   0  0  0  0  0  0  0  0  0  0  0  0
    3.5520    0.0410    2.1590 C   0  0  0  0  0  0  0  0  0  0  0  0
    4.7130    0.2130    1.4160 C   0  0  0  0  0  0  0  0  0  0  0  0
    4.6510    0.2090    0.0460 C   0  0  0  0  0  0  0  0  0  0  0  0
    3.4480    0.0350   -0.5920 C   0  0  0  0  0  0  0  0  0  0  0  0
    5.8440    0.3900   -0.7620 C   0  0  0  0  0  0  0  0  0  0  0  0
    5.9600    0.4120   -2.0400 C   0  0  0  0  0  0  0  0  0  0  0  0
    5.0510    0.2810   -3.1450 C   0  0  0  0  0  0  0  0  0  0  0  0
    7.0840    0.5710    0.0640 C   0  0  0  0  0  0  0  0  0  0  0  0
    7.0440    0.5600    1.3680 C   0  0  0  0  0  0  0  0  0  0  0  0
    5.8990    0.3850    2.1460 N   0  0  0  0  0  0  0  0  0  0  0  0
   -2.8490   -1.0050    0.8840 C   0  0  0  0  0  0  0  0  0  0  0  0
   -4.3260   -0.9940    1.0990 C   0  0  0  0  0  0  0  0  0  0  0  0
   -4.9250   -2.1310    1.3600 C   0  0  0  0  0  0  0  0  0  0  0  0
   -4.2140   -3.4190    1.4530 C   0  0  2  0  0  0  0  0  0  0  0  0
   -3.1070   -3.3850    2.2480 F   0  0  0  0  0  0  0  0  0  0  0  0
   -3.8200   -3.8090    0.1830 F   0  0  0  0  0  0  0  0  0  0  0  0
   -5.0780   -4.3590    1.9890 F   0  0  0  0  0  0  0  0  0  0  0  0
   -4.9520    0.2280    1.0050 O   0  0  0  0  0  0  0  0  0  0  0  0
  1  2  2  0
  2  3  1  0
  4  3  1  6
  4  5  1  0
  4 30  1  0
  5  6  1  0
  6  7  1  0
  6 23  1  0
  7  8  1  0
  8  9  2  0
  8 10  1  0
 10 11  1  0
 11 12  2  0
 11 16  1  0
 12 13  1  0
 13 14  2  0
 14 15  1  0
 14 22  1  0
 15 16  2  0
 15 17  1  0
 17 18  2  3
 17 20  1  0
 18 19  1  0
 20 21  2  0
 21 22  1  0
 23 24  1  0
 24 25  2  3
 24 30  1  0
 25 26  1  0
 26 27  1  1
 26 28  1  0
 26 29  1  0
M  CHG  1  22   1
M  END
