
     RDKit          3D

 30 32  0  0  0  0  0  0  0  0999 V2000
    6.9600    0.4270   -0.6570 C   0  0  0  0  0  0  0  0  0  0  0  0
    6.6090    0.3690    0.7970 C   0  0  0  0  0  0  0  0  0  0  0  0
    5.2560   -0.0810    1.0460 N   0  0  0  0  0  0  0  0  0  0  0  0
    4.3230    1.0500    1.0680 C   0  0  0  0  0  0  0  0  0  0  0  0
    3.6270    1.2050   -0.2010 C   0  0  0  0  0  0  0  0  0  0  0  0
    2.3330    1.1620   -0.4800 C   0  0  0  0  0  0  0  0  0  0  0  0
    1.3520    0.9270    0.5760 C   0  0  0  0  0  0  0  0  0  0  0  0
    0.4700   -0.2450    0.4360 C   0  0  0  0  0  0  0  0  0  0  0  0
    0.7100   -1.3420    1.1690 C   0  0  0  0  0  0  0  0  0  0  0  0
    1.8730   -1.3760    2.1300 C   0  0  0  0  0  0  0  0  0  0  0  0
   -0.1420   -2.4520    1.0220 N   0  0  0  0  0  0  0  0  0  0  0  0
   -1.1080   -2.6550   -0.0130 C   0  0  0  0  0  0  0  0  0  0  0  0
   -1.5970   -1.3880   -0.5350 N   0  0  0  0  0  0  0  0  0  0  0  0
   -2.8960   -1.3090   -1.1140 C   0  0  2  0  0  0  0  0  0  0  0  0
   -2.8840   -0.9160   -2.5730 C   0  0  0  0  0  0  0  0  0  0  0  0
   -4.2870   -1.2380   -3.1040 C   0  0  0  0  0  0  0  0  0  0  0  0
   -5.2810   -0.7500   -2.2430 O   0  0  0  0  0  0  0  0  0  0  0  0
   -5.0150   -0.1160   -1.0270 C   0  0  0  0  0  0  0  0  0  0  0  0
   -5.9120    0.7440   -0.4350 C   0  0  0  0  0  0  0  0  0  0  0  0
   -5.6100    1.3500    0.7670 C   0  0  0  0  0  0  0  0  0  0  0  0
   -6.6140    2.2620    1.3520 C   0  0  0  0  0  0  0  0  0  0  0  0
   -4.3960    1.0820    1.3690 C   0  0  0  0  0  0  0  0  0  0  0  0
   -3.4900    0.2210    0.7830 C   0  0  0  0  0  0  0  0  0  0  0  0
   -3.8050   -0.3770   -0.4190 C   0  0  0  0  0  0  0  0  0  0  0  0
   -0.7050   -0.2800   -0.4230 C   0  0  0  0  0  0  0  0  0  0  0  0
   -1.0340    0.7130   -1.1570 O   0  0  0  0  0  0  0  0  0  0  0  0
    1.9740    1.3560   -1.9220 C   0  0  1  0  0  0  0  0  0  0  0  0
    1.4960    0.2440   -2.5340 F   0  0  0  0  0  0  0  0  0  0  0  0
    1.1990    2.4820   -2.0400 F   0  0  0  0  0  0  0  0  0  0  0  0
    3.1700    1.6740   -2.5890 F   0  0  0  0  0  0  0  0  0  0  0  0
  1  2  1  0
  2  3  1  0
  3  4  1  0
  4  5  1  0
  5  6  2  3
  6  7  1  0
  6 27  1  0
  7  8  1  0
  8  9  2  0
  8 25  1  0
  9 10  1  0
  9 11  1  0
 11 12  1  0
 12 13  1  0
 14 13  1  1
 13 25  1  0
 14 15  1  0
 14 24  1  0
 15 16  1  0
 16 17  1  0
 17 18  1  0
 18 19  2  0
 18 24  1  0
 19 20  1  0
 20 21  1  0
 20 22  2  0
 22 23  1  0
 23 24  2  0
 25 26  2  0
 27 28  1  6
 27 29  1  0
 27 30  1  0
M  CHG  1   3   1
M  END
