
     RDKit          3D

 17 18  0  0  0  0  0  0  0  0999 V2000
   -3.2000   -1.3380    0.6630 C   0  0  0  0  0  0  0  0  0  0  0  0
   -2.2670   -0.2440    0.2840 C   0  0  0  0  0  0  0  0  0  0  0  0
   -2.7090    1.0290   -0.0040 C   0  0  0  0  0  0  0  0  0  0  0  0
   -4.0720    1.2660    0.0710 O   0  0  0  0  0  0  0  0  0  0  0  0
   -1.8260    2.0300   -0.3540 C   0  0  0  0  0  0  0  0  0  0  0  0
   -2.3280    3.2940   -0.6330 O   0  0  0  0  0  0  0  0  0  0  0  0
   -0.4780    1.7350   -0.4120 C   0  0  0  0  0  0  0  0  0  0  0  0
    0.0290    0.4600   -0.1300 C   0  0  0  0  0  0  0  0  0  0  0  0
    1.4680    0.2120   -0.2100 C   0  0  0  0  0  0  0  0  0  0  0  0
    2.0870   -0.2110   -1.3760 C   0  0  0  0  0  0  0  0  0  0  0  0
    3.4370   -0.4280   -1.4050 C   0  0  0  0  0  0  0  0  0  0  0  0
    4.2140   -0.2290   -0.2740 C   0  0  0  0  0  0  0  0  0  0  0  0
    3.6190    0.1940    0.9030 C   0  0  0  0  0  0  0  0  0  0  0  0
    2.2560    0.4070    0.9130 C   0  0  0  0  0  0  0  0  0  0  0  0
   -0.8920   -0.5030    0.2140 C   0  0  0  0  0  0  0  0  0  0  0  0
   -0.3930   -1.8650    0.5200 C   0  0  0  0  0  0  0  0  0  0  0  0
    0.9870   -1.9810    0.4130 O   0  0  0  0  0  0  0  0  0  0  0  0
  1  2  1  0
  2  3  2  0
  2 15  1  0
  3  4  1  0
  3  5  1  0
  5  6  1  0
  5  7  2  0
  7  8  1  0
  8  9  1  0
  8 15  2  0
  9 10  2  0
  9 14  1  0
 10 11  1  0
 11 12  2  0
 12 13  1  0
 13 14  2  0
 15 16  1  0
 16 17  1  0
M  END
