
     RDKit          3D

 17 18  0  0  0  0  0  0  0  0999 V2000
    5.7230   -0.0560   -0.9540 O   0  0  0  0  0  0  0  0  0  0  0  0
    4.5660   -0.1990   -1.7310 C   0  0  0  0  0  0  0  0  0  0  0  0
    3.3800    0.3290   -0.9100 C   0  0  0  0  0  0  0  0  0  0  0  0
    3.2210   -0.4320    0.3600 C   0  0  0  0  0  0  0  0  0  0  0  0
    2.2100   -0.0810    1.2010 O   0  0  0  0  0  0  0  0  0  0  0  0
    0.8790   -0.0350    1.1590 C   0  0  0  0  0  0  0  0  0  0  0  0
    0.1640   -0.4180    0.0520 C   0  0  0  0  0  0  0  0  0  0  0  0
   -1.2360   -0.3530    0.0500 C   0  0  0  0  0  0  0  0  0  0  0  0
   -1.9400    0.0930    1.1470 C   0  0  0  0  0  0  0  0  0  0  0  0
   -1.2090    0.4810    2.2690 C   0  0  0  0  0  0  0  0  0  0  0  0
    0.1610    0.4100    2.2530 C   0  0  0  0  0  0  0  0  0  0  0  0
    0.8640    0.7960    3.3670 O   0  0  0  0  0  0  0  0  0  0  0  0
   -3.3690    0.2550    1.4000 C   0  0  0  0  0  0  0  0  0  0  0  0
   -4.3180    0.1600    0.5020 C   0  0  0  0  0  0  0  0  0  0  0  0
   -4.2520   -0.1140   -0.9170 C   0  0  0  0  0  0  0  0  0  0  0  0
   -2.9610    0.1230   -1.6030 C   0  0  0  0  0  0  0  0  0  0  0  0
   -1.8440   -0.8030   -1.2260 C   0  0  0  0  0  0  0  0  0  0  0  0
  1  2  1  0
  2  3  1  0
  3  4  1  0
  4  5  1  0
  5  6  1  0
  6  7  2  0
  6 11  1  0
  7  8  1  0
  8  9  2  0
  8 17  1  0
  9 10  1  0
  9 13  1  0
 10 11  2  0
 11 12  1  0
 13 14  2  0
 14 15  1  0
 15 16  1  0
 16 17  1  0
M  END
