
     RDKit          3D

 17 18  0  0  0  0  0  0  0  0999 V2000
    4.3530    0.5310   -0.0080 C   0  0  0  0  0  0  0  0  0  0  0  0
    3.1320    1.3530    0.1240 C   0  0  0  0  0  0  0  0  0  0  0  0
    1.8990    0.9470    0.0020 C   0  0  0  0  0  0  0  0  0  0  0  0
    1.3980   -0.3550   -0.2860 C   0  0  0  0  0  0  0  0  0  0  0  0
    0.0830   -0.6730   -0.3840 C   0  0  0  0  0  0  0  0  0  0  0  0
   -1.0700    0.1910   -0.2310 C   0  0  0  0  0  0  0  0  0  0  0  0
   -1.2260    1.3950   -0.8640 C   0  0  0  0  0  0  0  0  0  0  0  0
   -2.3240    2.2200   -0.6770 C   0  0  0  0  0  0  0  0  0  0  0  0
   -3.3290    1.8420    0.1830 C   0  0  0  0  0  0  0  0  0  0  0  0
   -4.4510    2.6540    0.3950 O   0  0  0  0  0  0  0  0  0  0  0  0
   -3.1970    0.6380    0.8290 C   0  0  0  0  0  0  0  0  0  0  0  0
   -2.0980   -0.1740    0.6320 C   0  0  0  0  0  0  0  0  0  0  0  0
   -2.0110   -1.4590    1.3500 C   0  0  0  0  0  0  0  0  0  0  0  0
   -3.1120   -1.6120    2.1580 O   0  0  0  0  0  0  0  0  0  0  0  0
    0.0050   -2.0440   -0.6730 O   0  0  0  0  0  0  0  0  0  0  0  0
    1.1890   -2.4400   -1.3250 C   0  0  0  0  0  0  0  0  0  0  0  0
    2.2010   -1.5760   -0.5420 C   0  0  0  0  0  0  0  0  0  0  0  0
  1  2  1  0
  2  3  2  3
  3  4  1  0
  4  5  2  0
  4 17  1  0
  5  6  1  0
  5 15  1  0
  6  7  2  0
  6 12  1  0
  7  8  1  0
  8  9  2  0
  9 10  1  0
  9 11  1  0
 11 12  2  0
 12 13  1  0
 13 14  1  0
 15 16  1  0
 16 17  1  0
M  END
