
     RDKit          3D

 16 17  0  0  0  0  0  0  0  0999 V2000
    0.8040   -2.6390    0.0950 C   0  0  0  0  0  0  0  0  0  0  0  0
    0.5260   -1.1770    0.0450 C   0  0  0  0  0  0  0  0  0  0  0  0
    1.5640   -0.2680    0.0410 C   0  0  0  0  0  0  0  0  0  0  0  0
    2.9830   -0.7890    0.0910 C   0  0  0  0  0  0  0  0  0  0  0  0
    3.8510    0.3010    0.0760 O   0  0  0  0  0  0  0  0  0  0  0  0
    1.3290    1.0860   -0.0050 C   0  0  0  0  0  0  0  0  0  0  0  0
    0.0470    1.5780   -0.0500 C   0  0  0  0  0  0  0  0  0  0  0  0
   -0.2370    3.0410   -0.1010 C   0  0  0  0  0  0  0  0  0  0  0  0
    0.9620    3.7300   -0.0950 O   0  0  0  0  0  0  0  0  0  0  0  0
   -0.9990    0.6840   -0.0460 C   0  0  0  0  0  0  0  0  0  0  0  0
   -2.2830    1.2100   -0.0920 C   0  0  0  0  0  0  0  0  0  0  0  0
   -3.3530    0.3410   -0.0890 C   0  0  0  0  0  0  0  0  0  0  0  0
   -3.1070   -1.0090   -0.0430 C   0  0  0  0  0  0  0  0  0  0  0  0
   -1.8410   -1.5420    0.0030 C   0  0  0  0  0  0  0  0  0  0  0  0
   -1.6150   -2.9010    0.0490 O   0  0  0  0  0  0  0  0  0  0  0  0
   -0.7600   -0.6800    0.0010 C   0  0  0  0  0  0  0  0  0  0  0  0
  1  2  1  0
  2  3  2  0
  2 16  1  0
  3  4  1  0
  3  6  1  0
  4  5  1  0
  6  7  2  0
  7  8  1  0
  7 10  1  0
  8  9  1  0
 10 11  2  0
 10 16  1  0
 11 12  1  0
 12 13  2  0
 13 14  1  0
 14 15  1  0
 14 16  2  0
M  END
