
     RDKit          3D

 43 46  0  0  0  0  0  0  0  0999 V2000
   -1.2850    6.2710   -2.5120 C   0  0  0  0  0  0  0  0  0  0  0  0
   -0.1310    5.9360   -1.7880 O   0  0  0  0  0  0  0  0  0  0  0  0
   -0.0590    5.6470   -0.4690 N   0  0  0  0  0  0  0  0  0  0  0  0
   -0.3400    4.4890    0.0110 C   0  0  0  0  0  0  0  0  0  0  0  0
   -0.7630    3.3920   -0.8500 C   0  0  0  0  0  0  0  0  0  0  0  0
   -1.0420    2.2160   -0.3110 C   0  0  0  0  0  0  0  0  0  0  0  0
   -1.4630    1.1410   -1.1970 C   0  0  0  0  0  0  0  0  0  0  0  0
   -2.4540    0.3140   -1.0110 C   0  0  0  0  0  0  0  0  0  0  0  0
   -3.2730    0.3660    0.1270 O   0  0  0  0  0  0  0  0  0  0  0  0
   -3.9820   -0.8660    0.2020 C   0  0  2  0  0  0  0  0  0  0  0  0
   -3.3890   -1.8330    1.1910 C   0  0  0  0  0  0  0  0  0  0  0  0
   -2.2250   -2.5850    0.6250 C   0  0  0  0  0  0  0  0  0  0  0  0
   -1.3710   -3.2740    1.6630 C   0  0  0  0  0  0  0  0  0  0  0  0
   -1.0440   -2.4770    2.8000 N   0  0  0  0  0  0  0  0  0  0  0  0
    0.2620   -2.0800    3.1890 C   0  0  0  0  0  0  0  0  0  0  0  0
    0.4080   -1.5110    4.3340 O   0  0  0  0  0  0  0  0  0  0  0  0
    1.3250   -2.2960    2.3760 O   0  0  0  0  0  0  0  0  0  0  0  0
    1.6060   -1.8040    1.1070 C   0  0  1  0  0  0  0  0  0  0  0  0
    0.7450   -0.8780    0.6040 O   0  0  0  0  0  0  0  0  0  0  0  0
    0.8930    0.4120    0.9920 C   0  0  2  0  0  0  0  0  0  0  0  0
    2.0420    0.6650    1.9250 C   0  0  0  0  0  0  0  0  0  0  0  0
    3.3040   -0.0400    1.5220 C   0  0  0  0  0  0  0  0  0  0  0  0
    3.0720   -1.4330    1.0530 C   0  0  2  0  0  0  0  0  0  0  0  0
    3.6020   -1.7270   -0.2390 N   0  0  0  0  0  0  0  0  0  0  0  0
    4.6270   -2.7310   -0.5180 C   0  0  0  0  0  0  0  0  0  0  0  0
    5.4410   -2.0210   -1.5920 C   0  0  0  0  0  0  0  0  0  0  0  0
    4.4250   -1.3700   -2.3920 N   0  0  0  0  0  0  0  0  0  0  0  0
    4.5110   -1.0100   -3.7600 C   0  0  0  0  0  0  0  0  0  0  0  0
    4.3730    0.2590   -4.0540 N   0  0  0  0  0  0  0  0  0  0  0  0
    3.3150   -1.1680   -1.5230 C   0  0  0  0  0  0  0  0  0  0  0  0
    2.2290   -0.5980   -1.7790 O   0  0  0  0  0  0  0  0  0  0  0  0
   -0.3690    0.8800    1.6800 C   0  0  0  0  0  0  0  0  0  0  0  0
   -0.9440    1.9970    1.0250 O   0  0  0  0  0  0  0  0  0  0  0  0
   -4.0750   -1.3470   -1.1360 N   0  0  0  0  0  0  0  0  0  0  0  0
   -5.0840   -2.1930   -1.6990 C   0  0  0  0  0  0  0  0  0  0  0  0
   -4.7970   -3.5490   -1.6320 O   0  0  0  0  0  0  0  0  0  0  0  0
   -5.7910   -4.2150   -2.1780 O   0  0  0  0  0  0  0  0  0  0  0  0
   -2.9690   -0.8000   -1.8380 C   0  0  0  0  0  0  0  0  0  0  0  0
   -2.5140   -1.1840   -2.9420 O   0  0  0  0  0  0  0  0  0  0  0  0
   -0.2240    4.3200    1.4020 O   0  0  0  0  0  0  0  0  0  0  0  0
    0.1710    5.3450    2.2380 C   0  0  0  0  0  0  0  0  0  0  0  0
    0.4430    6.4760    1.7820 O   0  0  0  0  0  0  0  0  0  0  0  0
    0.2600    5.0930    3.6020 O   0  0  0  0  0  0  0  0  0  0  0  0
  1  2  1  0
  2  3  1  0
  3  4  2  3
  4  5  1  0
  4 40  1  0
  5  6  2  3
  6  7  1  0
  6 33  1  0
  7  8  2  0
  8  9  1  0
  8 38  1  0
  9 10  1  0
 10 11  1  1
 10 34  1  0
 11 12  1  0
 12 13  1  0
 13 14  1  0
 14 15  1  0
 15 16  2  0
 15 17  1  0
 18 17  1  1
 18 19  1  0
 18 23  1  0
 19 20  1  0
 20 21  1  1
 20 32  1  0
 21 22  1  0
 22 23  1  0
 23 24  1  6
 24 25  1  0
 24 30  1  0
 25 26  1  0
 26 27  1  0
 27 28  1  0
 27 30  1  0
 28 29  2  0
 30 31  2  0
 32 33  1  0
 34 35  1  0
 34 38  1  0
 35 36  1  0
 36 37  1  0
 38 39  2  0
 40 41  1  0
 41 42  2  0
 41 43  1  0
M  END
