
     RDKit          3D

 43 47  0  0  0  0  0  0  0  0999 V2000
   -7.8310    0.5590    1.4040 O   0  0  0  0  0  0  0  0  0  0  0  0
   -7.4300   -0.5000    0.8720 C   0  0  0  0  0  0  0  0  0  0  0  0
   -6.0440   -1.0000    0.9460 C   0  0  0  0  0  0  0  0  0  0  0  0
   -5.1020   -0.0890    1.7050 C   0  0  1  0  0  0  0  0  0  0  0  0
   -3.8440   -0.5510    1.8240 O   0  0  0  0  0  0  0  0  0  0  0  0
   -2.5570   -0.4610    1.6330 C   0  0  0  0  0  0  0  0  0  0  0  0
   -1.6580   -0.1040    2.6120 C   0  0  0  0  0  0  0  0  0  0  0  0
   -0.3160   -0.0130    2.4030 C   0  0  0  0  0  0  0  0  0  0  0  0
    0.2030   -0.2930    1.1310 C   0  0  0  0  0  0  0  0  0  0  0  0
    1.5680   -0.2090    0.9540 N   0  0  0  0  0  0  0  0  0  0  0  0
    2.2740   -1.0730   -0.0490 C   0  0  0  0  0  0  0  0  0  0  0  0
    1.6100   -1.8290   -0.6880 O   0  0  0  0  0  0  0  0  0  0  0  0
    3.6330   -0.7270    0.0530 N   0  0  0  0  0  0  0  0  0  0  0  0
    4.2160   -1.8460   -1.1200 C   0  0  0  0  0  0  0  0  0  0  0  0
    3.3820   -2.4830   -1.6260 O   0  0  0  0  0  0  0  0  0  0  0  0
    5.6350   -1.8070   -1.2760 C   0  0  0  0  0  0  0  0  0  0  0  0
    6.3350   -2.6950   -2.1170 C   0  0  0  0  0  0  0  0  0  0  0  0
    7.6400   -2.4260   -2.0520 N   0  0  0  0  0  0  0  0  0  0  0  0
    7.8180   -1.4090   -1.2110 N   0  0  0  0  0  0  0  0  0  0  0  0
    8.7180   -0.5880   -0.6280 C   0  0  0  0  0  0  0  0  0  0  0  0
    8.0270    0.3010    0.2150 C   0  0  0  0  0  0  0  0  0  0  0  0
    8.7700    1.3250    0.9880 C   0  0  2  0  0  0  0  0  0  0  0  0
    7.9230    2.4370    1.4950 C   0  0  0  0  0  0  0  0  0  0  0  0
    8.6970    3.5850    1.2100 O   0  0  0  0  0  0  0  0  0  0  0  0
    9.2470    3.2350   -0.0300 C   0  0  0  0  0  0  0  0  0  0  0  0
    9.7250    1.9590    0.1950 O   0  0  0  0  0  0  0  0  0  0  0  0
    6.7830   -0.0120    0.1050 O   0  0  0  0  0  0  0  0  0  0  0  0
    6.6110   -1.0290   -0.7380 C   0  0  0  0  0  0  0  0  0  0  0  0
   -0.6930   -0.6460    0.1560 C   0  0  0  0  0  0  0  0  0  0  0  0
   -2.0350   -0.7350    0.3780 C   0  0  0  0  0  0  0  0  0  0  0  0
   -2.8750   -1.1550   -0.7660 C   0  0  0  0  0  0  0  0  0  0  0  0
   -3.4580   -0.0570   -1.3460 O   0  0  0  0  0  0  0  0  0  0  0  0
   -3.9210   -0.4170   -2.6220 C   0  0  0  0  0  0  0  0  0  0  0  0
   -5.3940    0.0490   -2.6620 C   0  0  0  0  0  0  0  0  0  0  0  0
   -5.5500    1.2010   -1.9710 O   0  0  0  0  0  0  0  0  0  0  0  0
   -6.1310    1.7920   -0.9580 C   0  0  0  0  0  0  0  0  0  0  0  0
   -7.3500    2.2900   -1.2560 O   0  0  0  0  0  0  0  0  0  0  0  0
   -5.8230    2.0600    0.3850 N   0  0  0  0  0  0  0  0  0  0  0  0
   -5.2900    1.3410    1.4340 C   0  0  0  0  0  0  0  0  0  0  0  0
   -4.8400    2.0740    2.4350 O   0  0  0  0  0  0  0  0  0  0  0  0
   -8.3740   -1.2770    0.1480 N   0  0  0  0  0  0  0  0  0  0  0  0
   -9.6670   -0.8840    0.0380 O   0  0  0  0  0  0  0  0  0  0  0  0
   -9.7820    0.3370   -0.4500 O   0  0  0  0  0  0  0  0  0  0  0  0
  1  2  2  0
  2  3  1  0
  2 41  1  0
  4  3  1  6
  4  5  1  0
  4 39  1  0
  5  6  1  0
  6  7  2  0
  6 30  1  0
  7  8  1  0
  8  9  2  0
  9 10  1  0
  9 29  1  0
 10 11  1  0
 11 12  2  0
 11 13  1  0
 13 14  1  0
 14 15  2  0
 14 16  1  0
 16 17  1  0
 16 28  2  0
 17 18  2  0
 18 19  1  0
 19 20  1  0
 19 28  1  0
 20 21  2  0
 22 21  1  6
 21 27  1  0
 22 23  1  0
 22 26  1  0
 23 24  1  0
 24 25  1  0
 25 26  1  0
 27 28  1  0
 29 30  2  0
 30 31  1  0
 31 32  1  0
 32 33  1  0
 33 34  1  0
 34 35  1  0
 35 36  1  0
 36 37  2  0
 36 38  1  0
 38 39  1  0
 39 40  2  0
 41 42  1  0
 42 43  1  0
M  END
