
     RDKit          3D

 43 45  0  0  0  0  0  0  0  0999 V2000
   -0.7060   -2.7450    0.1920 C   0  0  0  0  0  0  0  0  0  0  0  0
    0.3290   -1.9220   -0.5430 C   0  0  1  0  0  0  0  0  0  0  0  0
    1.6640   -2.5830   -0.2820 C   0  0  0  0  0  0  0  0  0  0  0  0
    2.7930   -2.1940   -1.1490 C   0  0  0  0  0  0  0  0  0  0  0  0
    3.3870   -0.8860   -0.8200 N   0  0  0  0  0  0  0  0  0  0  0  0
    4.8240   -0.8000   -0.6860 C   0  0  0  0  0  0  0  0  0  0  0  0
    5.1690   -1.0740    0.7610 C   0  0  0  0  0  0  0  0  0  0  0  0
    6.6510   -1.0100    1.0150 C   0  0  0  0  0  0  0  0  0  0  0  0
    6.8570   -1.2750    2.3670 O   0  0  0  0  0  0  0  0  0  0  0  0
    8.1580   -1.2330    2.6580 O   0  0  0  0  0  0  0  0  0  0  0  0
    2.6170    0.3310   -0.6200 C   0  0  0  0  0  0  0  0  0  0  0  0
    3.2970    1.3560   -0.5610 O   0  0  0  0  0  0  0  0  0  0  0  0
    1.1630    0.4860   -0.4850 N   0  0  0  0  0  0  0  0  0  0  0  0
    0.8060    1.7480   -1.0780 C   0  0  0  0  0  0  0  0  0  0  0  0
    0.6680    2.9360   -0.2130 C   0  0  2  0  0  0  0  0  0  0  0  0
    1.4780    4.0570   -0.6530 N   0  0  0  0  0  0  0  0  0  0  0  0
    0.8630    5.2320   -1.1190 C   0  0  0  0  0  0  0  0  0  0  0  0
   -0.4040    5.3800   -1.1800 O   0  0  0  0  0  0  0  0  0  0  0  0
    1.6650    6.3000   -1.5380 O   0  0  0  0  0  0  0  0  0  0  0  0
    0.8190    2.7470    1.2660 C   0  0  0  0  0  0  0  0  0  0  0  0
   -0.2680    3.4790    2.0200 C   0  0  0  0  0  0  0  0  0  0  0  0
   -1.5780    2.7860    2.0900 C   0  0  0  0  0  0  0  0  0  0  0  0
   -2.3290    3.0310    0.9340 O   0  0  0  0  0  0  0  0  0  0  0  0
   -2.7460    1.7860    0.4250 C   0  0  0  0  0  0  0  0  0  0  0  0
   -3.8910    1.8830   -0.5230 C   0  0  0  0  0  0  0  0  0  0  0  0
   -5.0770    1.2100   -0.0270 N   0  0  0  0  0  0  0  0  0  0  0  0
   -5.1000   -0.1250    0.3850 C   0  0  0  0  0  0  0  0  0  0  0  0
   -5.7480   -0.3700    1.4660 O   0  0  0  0  0  0  0  0  0  0  0  0
   -4.4660   -1.2580   -0.2850 C   0  0  0  0  0  0  0  0  0  0  0  0
   -3.5540   -1.1780   -1.1860 O   0  0  0  0  0  0  0  0  0  0  0  0
   -3.1660   -2.3140   -1.6130 N   0  0  0  0  0  0  0  0  0  0  0  0
   -3.8560   -3.2660   -0.9670 C   0  0  0  0  0  0  0  0  0  0  0  0
   -3.7510   -4.5220   -1.1190 O   0  0  0  0  0  0  0  0  0  0  0  0
   -4.7060   -2.6260   -0.1000 C   0  0  0  0  0  0  0  0  0  0  0  0
   -5.6340   -3.2210    0.7960 N   0  0  0  0  0  0  0  0  0  0  0  0
   -5.2820   -3.5720    2.1320 C   0  0  0  0  0  0  0  0  0  0  0  0
   -4.1370   -3.3660    2.5630 O   0  0  0  0  0  0  0  0  0  0  0  0
   -2.1550   -2.5010   -2.6270 C   0  0  0  0  0  0  0  0  0  0  0  0
   -1.0610   -1.5050   -2.5820 C   0  0  0  0  0  0  0  0  0  0  0  0
   -1.2830   -0.4390   -3.2470 O   0  0  0  0  0  0  0  0  0  0  0  0
    0.0740   -1.7250   -1.8890 O   0  0  0  0  0  0  0  0  0  0  0  0
    0.3750   -0.5260    0.0970 C   0  0  0  0  0  0  0  0  0  0  0  0
   -0.3480   -0.4960    1.1180 O   0  0  0  0  0  0  0  0  0  0  0  0
  2  1  1  1
  2  3  1  0
  2 41  1  0
  2 42  1  0
  3  4  1  0
  4  5  1  0
  5  6  1  0
  5 11  1  0
  6  7  1  0
  7  8  1  0
  8  9  1  0
  9 10  1  0
 11 12  2  0
 11 13  1  0
 13 14  1  0
 13 42  1  0
 14 15  1  0
 15 16  1  6
 15 20  1  0
 16 17  1  0
 17 18  2  0
 17 19  1  0
 20 21  1  0
 21 22  1  0
 22 23  1  0
 23 24  1  0
 24 25  1  0
 25 26  1  0
 26 27  1  0
 27 28  2  0
 27 29  1  0
 29 30  1  0
 29 34  2  0
 30 31  1  0
 31 32  1  0
 31 38  1  0
 32 33  2  0
 32 34  1  0
 34 35  1  0
 35 36  1  0
 36 37  2  0
 38 39  1  0
 39 40  2  0
 39 41  1  0
 42 43  2  0
M  END
