
     RDKit          3D

 43 45  0  0  0  0  0  0  0  0999 V2000
   -4.8010   -0.2850    0.1670 C   0  0  0  0  0  0  0  0  0  0  0  0
   -4.0210    0.7630   -0.5890 C   0  0  2  0  0  0  0  0  0  0  0  0
   -4.8500    1.0950   -1.8350 C   0  0  0  0  0  0  0  0  0  0  0  0
   -2.7800    0.3090   -1.0460 O   0  0  0  0  0  0  0  0  0  0  0  0
   -1.7780   -0.1610   -0.1730 C   0  0  0  0  0  0  0  0  0  0  0  0
   -2.0750   -0.1440    1.0270 O   0  0  0  0  0  0  0  0  0  0  0  0
   -0.4770   -0.6340   -0.6810 C   0  0  2  0  0  0  0  0  0  0  0  0
   -0.7110   -1.8490   -1.5330 C   0  0  0  0  0  0  0  0  0  0  0  0
   -0.3980   -3.0730   -0.7430 C   0  0  0  0  0  0  0  0  0  0  0  0
    1.0390   -3.0160   -0.4530 N   0  0  0  0  0  0  0  0  0  0  0  0
    1.4920   -1.8940    0.3050 C   0  0  0  0  0  0  0  0  0  0  0  0
    0.6650   -0.6450    0.2380 C   0  0  2  0  0  0  0  0  0  0  0  0
    0.1430   -0.3570    1.6300 C   0  0  0  0  0  0  0  0  0  0  0  0
    0.0840    0.8640    2.0250 O   0  0  0  0  0  0  0  0  0  0  0  0
   -0.2910   -1.3130    2.5490 N   0  0  0  0  0  0  0  0  0  0  0  0
   -0.7770   -0.9070    3.8650 C   0  0  0  0  0  0  0  0  0  0  0  0
   -1.1880   -2.1060    4.6890 C   0  0  0  0  0  0  0  0  0  0  0  0
   -2.2040   -2.8100    4.0550 O   0  0  0  0  0  0  0  0  0  0  0  0
    1.6050    0.5010   -0.0360 C   0  0  0  0  0  0  0  0  0  0  0  0
    1.9560    1.4150    1.0440 N   0  0  0  0  0  0  0  0  0  0  0  0
    2.0470    2.6680    0.9070 C   0  0  0  0  0  0  0  0  0  0  0  0
    1.8060    3.2430   -0.3250 O   0  0  0  0  0  0  0  0  0  0  0  0
    2.4090    3.4920    2.0630 C   0  0  0  0  0  0  0  0  0  0  0  0
    3.6220    4.2190    1.8180 N   0  0  0  0  0  0  0  0  0  0  0  0
    4.1970    5.0900    2.7710 C   0  0  0  0  0  0  0  0  0  0  0  0
    3.5930    5.2100    3.8710 O   0  0  0  0  0  0  0  0  0  0  0  0
    5.3640    5.8090    2.5730 O   0  0  0  0  0  0  0  0  0  0  0  0
    2.1170    0.7080   -1.1480 N   0  0  0  0  0  0  0  0  0  0  0  0
    2.0780    0.1020   -2.4100 C   0  0  0  0  0  0  0  0  0  0  0  0
    1.6900    0.8140   -3.5230 C   0  0  0  0  0  0  0  0  0  0  0  0
    1.6550    0.2510   -4.8060 C   0  0  0  0  0  0  0  0  0  0  0  0
    2.0360   -1.0720   -4.8970 C   0  0  0  0  0  0  0  0  0  0  0  0
    2.4210   -1.7680   -3.7760 C   0  0  0  0  0  0  0  0  0  0  0  0
    2.4260   -1.1700   -2.6080 N   0  0  0  0  0  0  0  0  0  0  0  0
    2.8390   -3.2030   -3.8720 C   0  0  0  0  0  0  0  0  0  0  0  0
    2.5640   -3.7390   -4.9680 O   0  0  0  0  0  0  0  0  0  0  0  0
    3.4630   -3.7940   -2.7980 O   0  0  0  0  0  0  0  0  0  0  0  0
    3.0590   -3.8670   -1.5320 O   0  0  0  0  0  0  0  0  0  0  0  0
    1.8770   -4.0660   -0.9270 C   0  0  0  0  0  0  0  0  0  0  0  0
    1.4200   -5.2570   -0.7350 O   0  0  0  0  0  0  0  0  0  0  0  0
   -3.8850    2.0180    0.1940 C   0  0  0  0  0  0  0  0  0  0  0  0
   -2.7380    2.5020    0.3520 O   0  0  0  0  0  0  0  0  0  0  0  0
   -4.9560    2.6860    0.7620 O   0  0  0  0  0  0  0  0  0  0  0  0
  2  1  1  1
  2  3  1  0
  2  4  1  0
  2 41  1  0
  4  5  1  0
  5  6  2  0
  7  5  1  1
  7  8  1  0
  7 12  1  0
  8  9  1  0
  9 10  1  0
 10 11  1  0
 10 39  1  0
 11 12  1  0
 12 13  1  1
 12 19  1  0
 13 14  2  0
 13 15  1  0
 15 16  1  0
 16 17  1  0
 17 18  1  0
 19 20  1  0
 19 28  2  0
 20 21  2  3
 21 22  1  0
 21 23  1  0
 23 24  1  0
 24 25  1  0
 25 26  2  0
 25 27  1  0
 28 29  1  0
 29 30  2  0
 29 34  1  0
 30 31  1  0
 31 32  2  0
 32 33  1  0
 33 34  2  0
 33 35  1  0
 35 36  2  0
 35 37  1  0
 37 38  1  0
 38 39  1  0
 39 40  2  0
 41 42  2  0
 41 43  1  0
M  END
