
     RDKit          3D

 24 25  0  0  0  0  0  0  0  0999 V2000
    2.0870   -3.5100    2.5200 C   0  0  0  0  0  0  0  0  0  0  0  0
    2.4180   -2.2310    1.8190 C   0  0  0  0  0  0  0  0  0  0  0  0
    1.2770   -1.7120    0.9750 C   0  0  0  0  0  0  0  0  0  0  0  0
    1.2960   -1.5910   -0.3240 C   0  0  0  0  0  0  0  0  0  0  0  0
    2.3740   -1.9130   -1.2500 C   0  0  0  0  0  0  0  0  0  0  0  0
    2.8340   -0.7810   -2.0170 N   0  0  0  0  0  0  0  0  0  0  0  0
    3.3770    0.3860   -1.4090 C   0  0  0  0  0  0  0  0  0  0  0  0
    3.4360    0.3790   -0.1410 O   0  0  0  0  0  0  0  0  0  0  0  0
    3.8250    1.4970   -2.2510 C   0  0  0  0  0  0  0  0  0  0  0  0
    4.3690    2.6430   -1.4190 C   0  0  0  0  0  0  0  0  0  0  0  0
    5.5040    2.2110   -0.6210 N   0  0  0  0  0  0  0  0  0  0  0  0
   -0.0050   -1.0500   -0.6870 C   0  0  0  0  0  0  0  0  0  0  0  0
   -0.4130   -0.7790   -1.8400 O   0  0  0  0  0  0  0  0  0  0  0  0
   -0.8160   -0.8550    0.5450 C   0  0  0  0  0  0  0  0  0  0  0  0
   -2.1770   -0.3230    0.5740 C   0  0  0  0  0  0  0  0  0  0  0  0
   -2.8820   -0.1510    1.8680 C   0  0  0  0  0  0  0  0  0  0  0  0
   -2.8270    0.0330   -0.5460 C   0  0  0  0  0  0  0  0  0  0  0  0
   -4.2160    0.5730   -0.4800 C   0  0  1  0  0  0  0  0  0  0  0  0
   -4.2840    2.0230   -0.1390 C   0  0  0  0  0  0  0  0  0  0  0  0
   -4.7940    2.6440   -1.4230 C   0  0  0  0  0  0  0  0  0  0  0  0
   -5.6250    1.4750   -1.9690 C   0  0  0  0  0  0  0  0  0  0  0  0
   -4.7680    0.4270   -1.7560 O   0  0  0  0  0  0  0  0  0  0  0  0
   -0.0230   -1.2590    1.5190 C   0  0  0  0  0  0  0  0  0  0  0  0
   -0.3120   -1.2780    2.9600 C   0  0  0  0  0  0  0  0  0  0  0  0
  1  2  1  0
  2  3  1  0
  3  4  2  0
  3 23  1  0
  4  5  1  0
  4 12  1  0
  5  6  1  0
  6  7  1  0
  7  8  2  0
  7  9  1  0
  9 10  1  0
 10 11  1  0
 12 13  2  0
 12 14  1  0
 14 15  1  0
 14 23  2  0
 15 16  1  0
 15 17  2  3
 18 17  1  6
 18 19  1  0
 18 22  1  0
 19 20  1  0
 20 21  1  0
 21 22  1  0
 23 24  1  0
M  END
