
     RDKit          3D

 24 26  0  0  0  0  0  0  0  0999 V2000
   -1.4600   -3.6030    1.3300 C   0  0  0  0  0  0  0  0  0  0  0  0
   -1.8270   -2.9160    0.0500 C   0  0  0  0  0  0  0  0  0  0  0  0
   -1.4890   -1.4630    0.0600 C   0  0  0  0  0  0  0  0  0  0  0  0
   -0.1980   -0.8870   -0.0970 C   0  0  0  0  0  0  0  0  0  0  0  0
    0.9920   -1.6800   -0.3120 C   0  0  0  0  0  0  0  0  0  0  0  0
    0.8270   -2.9720   -0.1890 O   0  0  0  0  0  0  0  0  0  0  0  0
    2.2600   -1.2390   -0.6260 N   0  0  0  0  0  0  0  0  0  0  0  0
    3.3620   -2.2710   -0.7120 C   0  0  0  0  0  0  0  0  0  0  0  0
    4.5400   -1.5550   -0.0850 C   0  0  0  0  0  0  0  0  0  0  0  0
    4.1760   -0.5800    0.8420 O   0  0  0  0  0  0  0  0  0  0  0  0
    3.5610    0.5300    0.2520 C   0  0  1  0  0  0  0  0  0  0  0  0
    4.5110    1.5620   -0.2500 C   0  0  0  0  0  0  0  0  0  0  0  0
    5.3910    2.1330    0.8410 C   0  0  0  0  0  0  0  0  0  0  0  0
    6.2590    3.0900    0.3290 O   0  0  0  0  0  0  0  0  0  0  0  0
    2.7100    0.0680   -0.9310 C   0  0  0  0  0  0  0  0  0  0  0  0
   -0.3900    0.4320   -0.0360 N   0  0  0  0  0  0  0  0  0  0  0  0
   -1.6920    0.7570    0.1460 C   0  0  0  0  0  0  0  0  0  0  0  0
   -2.3800   -0.4330    0.2080 C   0  0  0  0  0  0  0  0  0  0  0  0
   -3.8100   -0.7440    0.4060 C   0  0  0  0  0  0  0  0  0  0  0  0
   -4.6920   -0.0520   -0.6060 C   0  0  0  0  0  0  0  0  0  0  0  0
   -5.3140    1.2010   -0.0060 C   0  0  0  0  0  0  0  0  0  0  0  0
   -4.3710    2.3380   -0.3040 C   0  0  0  0  0  0  0  0  0  0  0  0
   -3.3400    2.5290    0.7910 C   0  0  0  0  0  0  0  0  0  0  0  0
   -2.0050    2.2000    0.2220 C   0  0  0  0  0  0  0  0  0  0  0  0
  1  2  1  0
  2  3  1  0
  3  4  2  0
  3 18  1  0
  4  5  1  0
  4 16  1  0
  5  6  2  0
  5  7  1  0
  7  8  1  0
  7 15  1  0
  8  9  1  0
  9 10  1  0
 10 11  1  0
 11 12  1  6
 11 15  1  0
 12 13  1  0
 13 14  1  0
 16 17  1  0
 17 18  2  0
 17 24  1  0
 18 19  1  0
 19 20  1  0
 20 21  1  0
 21 22  1  0
 22 23  1  0
 23 24  1  0
M  END
