
     RDKit          3D

 24 25  0  0  0  0  0  0  0  0999 V2000
   -5.7390   -1.3030    0.7820 C   0  0  0  0  0  0  0  0  0  0  0  0
   -4.4260   -1.9300    0.4300 C   0  0  0  0  0  0  0  0  0  0  0  0
   -3.2820   -1.0440    0.2450 C   0  0  0  0  0  0  0  0  0  0  0  0
   -2.7450   -0.1980    1.3100 C   0  0  1  0  0  0  0  0  0  0  0  0
   -1.5320    0.5300    0.7040 C   0  0  0  0  0  0  0  0  0  0  0  0
   -0.5020   -0.3470    0.2620 N   0  0  0  0  0  0  0  0  0  0  0  0
    0.6640    0.2070   -0.3300 C   0  0  0  0  0  0  0  0  0  0  0  0
    0.7740    1.4760   -0.4580 O   0  0  0  0  0  0  0  0  0  0  0  0
    1.7290   -0.5570   -0.7950 N   0  0  0  0  0  0  0  0  0  0  0  0
    2.9370    0.0750   -1.4120 C   0  0  0  0  0  0  0  0  0  0  0  0
    4.0510   -0.1500   -0.8350 C   0  0  0  0  0  0  0  0  0  0  0  0
    5.4220    0.2360   -1.0640 C   0  0  0  0  0  0  0  0  0  0  0  0
    6.4300   -0.1710   -0.2520 C   0  0  0  0  0  0  0  0  0  0  0  0
    7.7100    0.3620   -0.7120 C   0  0  0  0  0  0  0  0  0  0  0  0
    7.3860    1.1450   -1.8990 C   0  0  0  0  0  0  0  0  0  0  0  0
    6.0630    1.0540   -2.0760 C   0  0  0  0  0  0  0  0  0  0  0  0
    2.5940    0.8340   -2.5700 C   0  0  0  0  0  0  0  0  0  0  0  0
    3.3470    1.4690   -3.2970 O   0  0  0  0  0  0  0  0  0  0  0  0
    1.2320    0.9100   -2.9930 O   0  0  0  0  0  0  0  0  0  0  0  0
    0.8650    1.6600   -4.1430 C   0  0  0  0  0  0  0  0  0  0  0  0
   -3.6680    0.9200    1.7230 C   0  0  0  0  0  0  0  0  0  0  0  0
   -3.9730    0.7650    3.1900 C   0  0  0  0  0  0  0  0  0  0  0  0
   -3.4490   -0.6010    3.5880 C   0  0  0  0  0  0  0  0  0  0  0  0
   -2.3580   -0.9090    2.5750 C   0  0  0  0  0  0  0  0  0  0  0  0
  1  2  1  0
  2  3  1  0
  4  3  1  6
  4  5  1  0
  4 21  1  0
  4 24  1  0
  5  6  1  0
  6  7  1  0
  7  8  2  0
  7  9  1  0
  9 10  1  0
 10 11  2  3
 10 17  1  0
 11 12  1  0
 12 13  2  0
 12 16  1  0
 13 14  1  0
 14 15  1  0
 15 16  2  0
 17 18  2  0
 17 19  1  0
 19 20  1  0
 21 22  1  0
 22 23  1  0
 23 24  1  0
M  END
