
     RDKit          3D

 24 25  0  0  0  0  0  0  0  0999 V2000
   -3.7330   -1.4380   -2.7040 C   0  0  0  0  0  0  0  0  0  0  0  0
   -2.4990   -1.3900   -1.9310 C   0  0  0  0  0  0  0  0  0  0  0  0
   -2.3170   -0.7060   -0.8340 C   0  0  0  0  0  0  0  0  0  0  0  0
   -1.0060   -0.7370   -0.1270 C   0  0  0  0  0  0  0  0  0  0  0  0
   -0.9860    0.2650    0.9820 C   0  0  2  0  0  0  0  0  0  0  0  0
    0.2210    0.1580    1.8720 C   0  0  0  0  0  0  0  0  0  0  0  0
    1.4850    0.3440    1.2300 N   0  0  0  0  0  0  0  0  0  0  0  0
    2.0220    1.6940    1.1730 C   0  0  0  0  0  0  0  0  0  0  0  0
    1.6720    2.4400   -0.0340 C   0  0  0  0  0  0  0  0  0  0  0  0
    2.0190    3.6320   -0.1610 O   0  0  0  0  0  0  0  0  0  0  0  0
    0.9580    1.8360   -1.0430 O   0  0  0  0  0  0  0  0  0  0  0  0
    0.6260    2.5630   -2.2050 C   0  0  0  0  0  0  0  0  0  0  0  0
    2.2540   -0.6960    0.6670 C   0  0  0  0  0  0  0  0  0  0  0  0
    1.8300   -1.8680    0.7260 O   0  0  0  0  0  0  0  0  0  0  0  0
    3.5340   -0.4150    0.0210 C   0  0  0  0  0  0  0  0  0  0  0  0
    4.2100   -1.6490   -0.5280 C   0  0  2  0  0  0  0  0  0  0  0  0
    4.5030   -2.6640    0.5460 C   0  0  0  0  0  0  0  0  0  0  0  0
    5.5620   -1.1850   -1.0800 C   0  0  0  0  0  0  0  0  0  0  0  0
   -2.2050   -0.0090    1.8760 C   0  0  0  0  0  0  0  0  0  0  0  0
   -3.4070    0.2860    1.1490 N   0  0  0  0  0  0  0  0  0  0  0  0
   -4.6960    0.7660    1.5200 C   0  0  0  0  0  0  0  0  0  0  0  0
   -5.2320    1.4380    0.2520 C   0  0  0  0  0  0  0  0  0  0  0  0
   -4.4140    0.7690   -0.7920 C   0  0  0  0  0  0  0  0  0  0  0  0
   -3.4000    0.1070   -0.2770 C   0  0  0  0  0  0  0  0  0  0  0  0
  1  2  1  0
  2  3  2  3
  3  4  1  0
  3 24  1  0
  4  5  1  0
  5  6  1  1
  5 19  1  0
  6  7  1  0
  7  8  1  0
  7 13  1  0
  8  9  1  0
  9 10  2  0
  9 11  1  0
 11 12  1  0
 13 14  2  0
 13 15  1  0
 15 16  1  0
 16 17  1  1
 16 18  1  0
 19 20  1  0
 20 21  1  0
 20 24  1  0
 21 22  1  0
 22 23  1  0
 23 24  2  0
M  END
