
     RDKit          3D

 24 26  0  0  0  0  0  0  0  0999 V2000
    2.1850   -2.1990    1.3100 C   0  0  0  0  0  0  0  0  0  0  0  0
    1.9430   -1.6580    0.0070 N   0  0  0  0  0  0  0  0  0  0  0  0
    0.7670   -2.2430   -0.6960 C   0  0  0  0  0  0  0  0  0  0  0  0
   -0.4270   -1.4080   -0.3040 C   0  0  0  0  0  0  0  0  0  0  0  0
   -0.4490   -0.3290    0.5260 C   0  0  0  0  0  0  0  0  0  0  0  0
   -1.7370    0.1300    0.6060 N   0  0  0  0  0  0  0  0  0  0  0  0
   -2.5670   -0.6060   -0.1410 C   0  0  0  0  0  0  0  0  0  0  0  0
   -3.9770   -0.5680   -0.4110 C   0  0  0  0  0  0  0  0  0  0  0  0
   -4.4270   -1.4760   -1.2100 O   0  0  0  0  0  0  0  0  0  0  0  0
   -4.9650    0.3500    0.0870 C   0  0  0  0  0  0  0  0  0  0  0  0
   -4.8150    1.3610    0.9010 C   0  0  0  0  0  0  0  0  0  0  0  0
   -6.1350    2.0120    1.1240 C   0  0  0  0  0  0  0  0  0  0  0  0
   -7.0710    1.2390    0.3260 C   0  0  0  0  0  0  0  0  0  0  0  0
   -6.4160    0.2870   -0.2710 C   0  0  0  0  0  0  0  0  0  0  0  0
   -1.7170   -1.5830   -0.7150 C   0  0  0  0  0  0  0  0  0  0  0  0
    2.6250   -0.6780   -0.7020 C   0  0  0  0  0  0  0  0  0  0  0  0
    2.1520   -0.4050   -1.8740 O   0  0  0  0  0  0  0  0  0  0  0  0
    3.7750    0.0650   -0.3090 C   0  0  0  0  0  0  0  0  0  0  0  0
    4.4660   -0.0340    0.8720 C   0  0  0  0  0  0  0  0  0  0  0  0
    5.5870    0.7230    1.1990 C   0  0  0  0  0  0  0  0  0  0  0  0
    6.0440    1.6390    0.2830 C   0  0  0  0  0  0  0  0  0  0  0  0
    5.3990    1.7830   -0.9100 C   0  0  0  0  0  0  0  0  0  0  0  0
    5.9070    2.7310   -1.8080 O   0  0  0  0  0  0  0  0  0  0  0  0
    4.3010    1.0240   -1.2010 C   0  0  0  0  0  0  0  0  0  0  0  0
  1  2  1  0
  2  3  1  0
  2 16  1  0
  3  4  1  0
  4  5  2  0
  4 15  1  0
  5  6  1  0
  6  7  1  0
  7  8  1  0
  7 15  2  0
  8  9  2  0
  8 10  1  0
 10 11  2  0
 10 14  1  0
 11 12  1  0
 12 13  1  0
 13 14  2  0
 16 17  2  0
 16 18  1  0
 18 19  2  0
 18 24  1  0
 19 20  1  0
 20 21  2  0
 21 22  1  0
 22 23  1  0
 22 24  2  0
M  END
