
     RDKit          3D

 24 26  0  0  0  0  0  0  0  0999 V2000
    4.7090    2.5280    1.4880 C   0  0  0  0  0  0  0  0  0  0  0  0
    5.4870    1.2580    1.2270 C   0  0  0  0  0  0  0  0  0  0  0  0
    5.2910    0.8660   -0.2200 C   0  0  0  0  0  0  0  0  0  0  0  0
    3.8490    0.6230   -0.5420 C   0  0  0  0  0  0  0  0  0  0  0  0
    3.2380   -0.4810    0.2820 C   0  0  2  0  0  0  0  0  0  0  0  0
    3.9020   -1.7970    0.1110 C   0  0  0  0  0  0  0  0  0  0  0  0
    3.1680   -2.4200   -1.0240 C   0  0  0  0  0  0  0  0  0  0  0  0
    3.5780   -3.2300   -1.8750 O   0  0  0  0  0  0  0  0  0  0  0  0
    1.8120   -1.8460   -0.9100 C   0  0  0  0  0  0  0  0  0  0  0  0
    1.8370   -0.7080   -0.1410 C   0  0  0  0  0  0  0  0  0  0  0  0
    0.5560   -0.2280   -0.0720 N   0  0  0  0  0  0  0  0  0  0  0  0
   -0.2820   -1.0160   -0.7660 C   0  0  0  0  0  0  0  0  0  0  0  0
   -1.7170   -0.8860   -0.9630 C   0  0  0  0  0  0  0  0  0  0  0  0
   -2.3110   -1.7340   -1.6480 O   0  0  0  0  0  0  0  0  0  0  0  0
   -2.4910    0.1670   -0.4090 N   0  0  0  0  0  0  0  0  0  0  0  0
   -3.8800    0.3470   -0.5620 C   0  0  2  0  0  0  0  0  0  0  0  0
   -4.3160    1.6490   -1.1560 C   0  0  0  0  0  0  0  0  0  0  0  0
   -5.7520    1.7210   -0.6640 C   0  0  0  0  0  0  0  0  0  0  0  0
   -5.9070    0.7760    0.3100 O   0  0  0  0  0  0  0  0  0  0  0  0
   -4.6650    0.3480    0.7290 C   0  0  1  0  0  0  0  0  0  0  0  0
   -4.8190   -1.0640    1.2520 C   0  0  0  0  0  0  0  0  0  0  0  0
   -4.0960    1.2570    1.7700 C   0  0  0  0  0  0  0  0  0  0  0  0
    0.4990   -2.0220   -1.2880 C   0  0  0  0  0  0  0  0  0  0  0  0
    0.0330   -3.1560   -2.1420 C   0  0  0  0  0  0  0  0  0  0  0  0
  1  2  1  0
  2  3  1  0
  3  4  1  0
  5  4  1  6
  5  6  1  0
  5 10  1  0
  6  7  1  0
  7  8  2  0
  7  9  1  0
  9 10  2  0
  9 23  1  0
 10 11  1  0
 11 12  1  0
 12 13  1  0
 12 23  2  0
 13 14  2  0
 13 15  1  0
 16 15  1  1
 16 17  1  0
 16 20  1  0
 17 18  1  0
 18 19  1  0
 19 20  1  0
 20 21  1  1
 20 22  1  0
 23 24  1  0
M  END
