
     RDKit          3D

 20 21  0  0  0  0  0  0  0  0999 V2000
   -3.7800    2.0200   -0.9380 N   0  0  0  0  0  0  0  0  0  0  0  0
   -2.7590    1.0470   -1.0770 C   0  0  0  0  0  0  0  0  0  0  0  0
   -2.1070    0.9600   -2.1420 O   0  0  0  0  0  0  0  0  0  0  0  0
   -2.4790    0.1420    0.0520 C   0  0  1  0  0  0  0  0  0  0  0  0
   -3.7150   -0.6480    0.3750 C   0  0  0  0  0  0  0  0  0  0  0  0
   -3.3520   -2.0300    0.1670 N   0  0  0  0  0  0  0  0  0  0  0  0
   -1.9410   -2.1910    0.1220 C   0  0  0  0  0  0  0  0  0  0  0  0
   -1.2560   -3.2230    0.3420 O   0  0  0  0  0  0  0  0  0  0  0  0
   -1.3970   -0.8500   -0.2520 C   0  0  2  0  0  0  0  0  0  0  0  0
   -0.1940   -0.5770    0.4850 N   0  0  0  0  0  0  0  0  0  0  0  0
    0.4500    0.6410    0.3110 N   0  0  0  0  0  0  0  0  0  0  0  0
    1.7360    0.7210    0.1740 C   0  0  0  0  0  0  0  0  0  0  0  0
    2.5530   -0.4640    0.1980 C   0  0  0  0  0  0  0  0  0  0  0  0
    3.8500   -0.3790    0.0590 C   0  0  0  0  0  0  0  0  0  0  0  0
    4.6220   -1.5690    0.0880 N   0  0  0  0  0  0  0  0  0  0  0  0
    4.4870    0.9110   -0.1210 C   0  0  0  0  0  0  0  0  0  0  0  0
    5.7450    0.9420   -0.2510 O   0  0  0  0  0  0  0  0  0  0  0  0
    3.7380    2.1100   -0.1530 N   0  0  0  0  0  0  0  0  0  0  0  0
    2.3090    2.0300   -0.0020 C   0  0  0  0  0  0  0  0  0  0  0  0
    1.6030    3.0660   -0.0240 O   0  0  0  0  0  0  0  0  0  0  0  0
  1  2  1  0
  2  3  2  0
  4  2  1  6
  4  5  1  0
  4  9  1  0
  5  6  1  0
  6  7  1  0
  7  8  2  0
  7  9  1  0
  9 10  1  1
 10 11  1  0
 11 12  2  3
 12 13  1  0
 12 19  1  0
 13 14  2  0
 14 15  1  0
 14 16  1  0
 16 17  2  0
 16 18  1  0
 18 19  1  0
 19 20  2  0
M  END
