
     RDKit          3D

 21 22  0  0  0  0  0  0  0  0999 V2000
    6.0240    2.2720   -0.9050 C   0  0  0  0  0  0  0  0  0  0  0  0
    5.3790    1.7840    0.2520 O   0  0  0  0  0  0  0  0  0  0  0  0
    4.4600    0.7210    0.1970 C   0  0  0  0  0  0  0  0  0  0  0  0
    3.1900    0.9590   -0.0590 C   0  0  0  0  0  0  0  0  0  0  0  0
    2.2130   -0.1310   -0.1210 C   0  0  2  0  0  0  0  0  0  0  0  0
    1.2310    0.0670    0.9400 N   0  0  0  0  0  0  0  0  0  0  0  0
   -0.1570    0.2630    0.6070 C   0  0  0  0  0  0  0  0  0  0  0  0
   -0.4130    0.2470   -0.6170 O   0  0  0  0  0  0  0  0  0  0  0  0
   -1.1420    0.4580    1.5840 N   0  0  0  0  0  0  0  0  0  0  0  0
   -2.5350    0.6420    1.3090 C   0  0  0  0  0  0  0  0  0  0  0  0
   -3.2190   -0.5000    0.6410 C   0  0  2  0  0  0  0  0  0  0  0  0
   -2.7160   -0.8740   -0.6310 N   0  0  0  0  0  0  0  0  0  0  0  0
   -4.7330   -0.2930    0.5770 C   0  0  2  0  0  0  0  0  0  0  0  0
   -5.3120   -1.5370   -0.0650 C   0  0  0  0  0  0  0  0  0  0  0  0
   -5.3570   -1.1540   -1.4050 O   0  0  0  0  0  0  0  0  0  0  0  0
   -5.8480    0.1220   -1.2720 N   0  0  0  0  0  0  0  0  0  0  0  0
   -5.0790    0.6970   -0.3190 O   0  0  0  0  0  0  0  0  0  0  0  0
    2.7850   -1.4390    0.1210 N   0  0  0  0  0  0  0  0  0  0  0  0
    4.1340   -1.6150    0.3850 N   0  0  0  0  0  0  0  0  0  0  0  0
    4.9450   -0.6300    0.4280 C   0  0  0  0  0  0  0  0  0  0  0  0
    6.3370   -0.8620    0.7060 N   0  0  0  0  0  0  0  0  0  0  0  0
  1  2  1  0
  2  3  1  0
  3  4  2  0
  3 20  1  0
  4  5  1  0
  5  6  1  1
  5 18  1  0
  6  7  1  0
  7  8  2  0
  7  9  1  0
  9 10  1  0
 10 11  1  0
 11 12  1  6
 11 13  1  0
 13 14  1  6
 13 17  1  0
 14 15  1  0
 15 16  1  0
 16 17  1  0
 18 19  1  0
 19 20  2  0
 20 21  1  0
M  CHG  1  16   1
M  END
