
     RDKit          3D

 20 21  0  0  0  0  0  0  0  0999 V2000
   -2.3590   -1.4390   -2.2960 N   0  0  0  0  0  0  0  0  0  0  0  0
   -2.4320   -1.7390   -0.9370 N   0  0  0  0  0  0  0  0  0  0  0  0
   -1.4920   -1.1850    0.0170 C   0  0  0  0  0  0  0  0  0  0  0  0
   -1.4250    0.1270    0.1570 C   0  0  0  0  0  0  0  0  0  0  0  0
   -2.2910    0.9270   -0.6480 N   0  0  0  0  0  0  0  0  0  0  0  0
   -0.5390    0.8500    1.0600 C   0  0  2  0  0  0  0  0  0  0  0  0
   -0.9640    2.2890    1.4050 C   0  0  0  0  0  0  0  0  0  0  0  0
    0.1860    2.0010    0.4970 C   0  0  1  0  0  0  0  0  0  0  0  0
    1.4880    2.1360    1.1080 N   0  0  0  0  0  0  0  0  0  0  0  0
    2.6790    1.6270    0.5000 C   0  0  0  0  0  0  0  0  0  0  0  0
    3.7190    1.6530    1.2080 O   0  0  0  0  0  0  0  0  0  0  0  0
    2.7810    1.1050   -0.8110 N   0  0  0  0  0  0  0  0  0  0  0  0
    1.9140    0.1390   -1.3950 C   0  0  0  0  0  0  0  0  0  0  0  0
    1.4870    0.4170   -2.5700 O   0  0  0  0  0  0  0  0  0  0  0  0
    1.4860   -1.1050   -0.7810 C   0  0  0  0  0  0  0  0  0  0  0  0
    0.8200   -1.9440   -1.4420 O   0  0  0  0  0  0  0  0  0  0  0  0
    1.7700   -1.5060    0.6190 C   0  0  0  0  0  0  0  0  0  0  0  0
    0.5890   -2.0270    1.2550 N   0  0  0  0  0  0  0  0  0  0  0  0
   -0.7000   -2.1790    0.7400 C   0  0  0  0  0  0  0  0  0  0  0  0
   -1.2380   -3.3410    0.9380 O   0  0  0  0  0  0  0  0  0  0  0  0
  1  2  1  0
  2  3  1  0
  3  4  2  0
  3 19  1  0
  4  5  1  0
  4  6  1  0
  6  7  1  1
  6  8  1  0
  8  7  1  1
  8  9  1  0
  9 10  1  0
 10 11  2  0
 10 12  1  0
 12 13  1  0
 13 14  2  0
 13 15  1  0
 15 16  2  0
 15 17  1  0
 17 18  1  0
 18 19  1  0
 19 20  2  0
M  END
