
     RDKit          3D

 31 34  0  0  0  0  0  0  0  0999 V2000
    6.5290    1.0260    2.3960 C   0  0  0  0  0  0  0  0  0  0  0  0
    6.5770    0.7900    0.9240 C   0  0  0  0  0  0  0  0  0  0  0  0
    7.6180    1.1470    0.1490 C   0  0  0  0  0  0  0  0  0  0  0  0
    7.6610    0.9290   -1.2080 C   0  0  0  0  0  0  0  0  0  0  0  0
    8.7930    1.3270   -1.9990 N   0  0  0  0  0  0  0  0  0  0  0  0
    6.5970    0.3300   -1.7430 N   0  0  0  0  0  0  0  0  0  0  0  0
    5.5080   -0.0560   -0.9950 C   0  0  0  0  0  0  0  0  0  0  0  0
    4.4040   -0.7770   -1.7250 C   0  0  0  0  0  0  0  0  0  0  0  0
    5.4450    0.1520    0.3410 C   0  0  0  0  0  0  0  0  0  0  0  0
    4.3790   -0.2320    1.2500 C   0  0  0  0  0  0  0  0  0  0  0  0
    3.1670   -0.7800    0.7970 N   0  0  0  0  0  0  0  0  0  0  0  0
    2.1570   -0.0520    0.0860 C   0  0  0  0  0  0  0  0  0  0  0  0
    2.3270    1.1630   -0.1710 O   0  0  0  0  0  0  0  0  0  0  0  0
    0.9340   -0.7060   -0.3440 C   0  0  0  0  0  0  0  0  0  0  0  0
    0.5460   -2.0170   -0.1620 C   0  0  0  0  0  0  0  0  0  0  0  0
   -0.6800   -2.1940   -0.7310 N   0  0  0  0  0  0  0  0  0  0  0  0
   -1.0720   -1.0480   -1.2600 N   0  0  0  0  0  0  0  0  0  0  0  0
   -2.3300   -0.8690   -1.9480 C   0  0  0  0  0  0  0  0  0  0  0  0
   -3.3780   -0.4590   -0.9940 C   0  0  0  0  0  0  0  0  0  0  0  0
   -3.6850    0.8440   -0.6870 C   0  0  0  0  0  0  0  0  0  0  0  0
   -4.6770    1.1910    0.2160 C   0  0  0  0  0  0  0  0  0  0  0  0
   -5.3730    0.1660    0.8190 C   0  0  0  0  0  0  0  0  0  0  0  0
   -6.4570    0.4270    1.8010 C   0  0  0  0  0  0  0  0  0  0  0  0
   -7.7350    0.5310    1.1530 N   0  0  0  0  0  0  0  0  0  0  0  0
   -8.5870   -0.4830    0.9170 C   0  0  0  0  0  0  0  0  0  0  0  0
   -9.6930    0.0370    0.2790 C   0  0  0  0  0  0  0  0  0  0  0  0
   -9.4770    1.3740    0.1430 C   0  0  0  0  0  0  0  0  0  0  0  0
   -8.2740    1.6330    0.6880 N   0  0  0  0  0  0  0  0  0  0  0  0
   -5.0970   -1.1660    0.5390 C   0  0  0  0  0  0  0  0  0  0  0  0
   -4.1010   -1.4640   -0.3670 C   0  0  0  0  0  0  0  0  0  0  0  0
   -0.1150   -0.1310   -1.0410 C   0  0  0  0  0  0  0  0  0  0  0  0
  1  2  1  0
  2  3  2  0
  2  9  1  0
  3  4  1  0
  4  5  1  0
  4  6  2  0
  6  7  1  0
  7  8  1  0
  7  9  2  0
  9 10  1  0
 10 11  1  0
 11 12  1  0
 12 13  2  0
 12 14  1  0
 14 15  1  0
 14 31  2  0
 15 16  2  0
 16 17  1  0
 17 18  1  0
 17 31  1  0
 18 19  1  0
 19 20  2  0
 19 30  1  0
 20 21  1  0
 21 22  2  0
 22 23  1  0
 22 29  1  0
 23 24  1  0
 24 25  1  0
 24 28  1  0
 25 26  2  0
 26 27  1  0
 27 28  2  0
 29 30  2  0
M  END
