
     RDKit          3D

 31 33  0  0  0  0  0  0  0  0999 V2000
    8.9120    0.2320    1.2630 C   0  0  0  0  0  0  0  0  0  0  0  0
    7.6050    0.6360    0.6050 C   0  0  0  0  0  0  0  0  0  0  0  0
    6.8570   -0.6090    0.1880 C   0  0  2  0  0  0  0  0  0  0  0  0
    7.7470   -1.3670   -0.7950 C   0  0  0  0  0  0  0  0  0  0  0  0
    5.5820   -0.3060   -0.5620 C   0  0  0  0  0  0  0  0  0  0  0  0
    4.6370    0.5060    0.2840 C   0  0  0  0  0  0  0  0  0  0  0  0
    3.4020    0.8040   -0.4210 N   0  0  0  0  0  0  0  0  0  0  0  0
    3.2080    1.9660   -1.2270 C   0  0  0  0  0  0  0  0  0  0  0  0
    2.3500   -0.1340   -0.2770 C   0  0  0  0  0  0  0  0  0  0  0  0
    2.4310   -1.1830    0.4110 O   0  0  0  0  0  0  0  0  0  0  0  0
    1.1530    0.1030   -0.9280 O   0  0  0  0  0  0  0  0  0  0  0  0
    0.0770   -0.7860   -0.8260 C   0  0  2  0  0  0  0  0  0  0  0  0
    0.4390   -2.0360   -1.3040 F   0  0  0  0  0  0  0  0  0  0  0  0
   -1.1000   -0.2310   -1.4670 N   0  0  0  0  0  0  0  0  0  0  0  0
   -1.7700   -0.2200   -0.3670 C   0  0  0  0  0  0  0  0  0  0  0  0
   -3.1060    0.1810    0.0010 N   0  0  0  0  0  0  0  0  0  0  0  0
   -3.2480    1.0170    1.1710 C   0  0  0  0  0  0  0  0  0  0  0  0
   -4.4220    0.5440    1.9890 C   0  0  1  0  0  0  0  0  0  0  0  0
   -4.2180   -0.7460    2.4900 O   0  0  0  0  0  0  0  0  0  0  0  0
   -4.6500    1.6120    3.3880 Cl  0  0  0  0  0  0  0  0  0  0  0  0
   -5.6440    0.5970    1.0910 C   0  0  0  0  0  0  0  0  0  0  0  0
   -5.4840   -0.4540    0.0130 C   0  0  1  0  0  0  0  0  0  0  0  0
   -4.2320   -0.2460   -0.7820 C   0  0  0  0  0  0  0  0  0  0  0  0
   -5.4750   -1.7190    0.6000 O   0  0  0  0  0  0  0  0  0  0  0  0
   -6.7660   -2.1810    0.5640 C   0  0  0  0  0  0  0  0  0  0  0  0
   -7.4590   -1.4400   -0.5190 C   0  0  0  0  0  0  0  0  0  0  0  0
   -6.6850   -0.4190   -0.8340 C   0  0  0  0  0  0  0  0  0  0  0  0
   -6.9430    0.5340   -1.7950 O   0  0  0  0  0  0  0  0  0  0  0  0
   -7.9110    1.5490   -1.6030 C   0  0  0  0  0  0  0  0  0  0  0  0
   -0.6820   -0.7760    0.4290 C   0  0  0  0  0  0  0  0  0  0  0  0
   -0.5020   -1.0880    1.6210 O   0  0  0  0  0  0  0  0  0  0  0  0
  1  2  1  0
  2  3  1  0
  3  4  1  6
  3  5  1  0
  5  6  1  0
  6  7  1  0
  7  8  1  0
  7  9  1  0
  9 10  2  0
  9 11  1  0
 11 12  1  0
 12 13  1  6
 12 14  1  0
 12 30  1  0
 14 15  2  0
 15 16  1  0
 15 30  1  0
 16 17  1  0
 16 23  1  0
 17 18  1  0
 18 19  1  1
 18 20  1  0
 18 21  1  0
 22 21  1  1
 22 23  1  0
 22 24  1  0
 22 27  1  0
 24 25  1  0
 25 26  1  0
 26 27  2  0
 27 28  1  0
 28 29  1  0
 30 31  2  0
M  END
