
     RDKit          3D

 33 34  0  0  0  0  0  0  0  0999 V2000
   -4.1000    6.4040    0.3940 O   0  0  0  0  0  0  0  0  0  0  0  0
   -3.2160    5.3930   -0.3450 P   0  0  0  0  0  0  0  0  0  0  0  0
   -3.7490    3.6490   -0.6500 C   0  0  0  0  0  0  0  0  0  0  0  0
   -4.7430    3.3410   -1.4300 N   0  0  0  0  0  0  0  0  0  0  0  0
   -4.8780    1.9170   -1.4370 C   0  0  0  0  0  0  0  0  0  0  0  0
   -5.7750    1.0700   -1.6940 N   0  0  0  0  0  0  0  0  0  0  0  0
   -5.5790   -0.2850   -1.5990 O   0  0  0  0  0  0  0  0  0  0  0  0
   -4.2640   -0.8180   -1.3660 C   0  0  0  0  0  0  0  0  0  0  0  0
   -3.6000    0.1220   -0.3750 C   0  0  1  0  0  0  0  0  0  0  0  0
   -4.5660    0.1570    0.8300 C   0  0  0  0  0  0  0  0  0  0  0  0
   -4.6040   -1.1770    1.3540 O   0  0  0  0  0  0  0  0  0  0  0  0
   -5.3680   -1.5260    2.4410 C   0  0  0  0  0  0  0  0  0  0  0  0
   -6.0630   -0.6480    3.0060 O   0  0  0  0  0  0  0  0  0  0  0  0
   -5.4080   -2.8200    2.9490 O   0  0  0  0  0  0  0  0  0  0  0  0
   -2.3800   -0.2850    0.1640 N   0  0  0  0  0  0  0  0  0  0  0  0
   -1.1670   -0.6400   -0.2910 C   0  0  0  0  0  0  0  0  0  0  0  0
   -1.6490   -0.4270   -1.7870 O   0  0  0  0  0  0  0  0  0  0  0  0
   -0.0320   -0.9710   -0.7220 N   0  0  0  0  0  0  0  0  0  0  0  0
    1.2640   -1.3700   -0.8330 C   0  0  0  0  0  0  0  0  0  0  0  0
    1.5330   -1.3980   -2.1050 O   0  0  0  0  0  0  0  0  0  0  0  0
    2.2180   -1.7070    0.0470 N   0  0  0  0  0  0  0  0  0  0  0  0
    3.5700   -2.1020   -0.3770 C   0  0  0  0  0  0  0  0  0  0  0  0
    4.2270   -0.9620   -1.1100 C   0  0  0  0  0  0  0  0  0  0  0  0
    4.2940    0.4860    0.0820 P   0  0  0  0  0  0  0  0  0  0  0  0
    4.2870   -0.1310    1.6820 O   0  0  0  0  0  0  0  0  0  0  0  0
    5.6710    1.4690   -0.1980 O   0  0  0  0  0  0  0  0  0  0  0  0
    7.0760    0.5670    0.2840 P   0  0  0  0  0  0  0  0  0  0  0  0
    6.6180   -0.6860    1.3870 O   0  0  0  0  0  0  0  0  0  0  0  0
    8.2070    1.6040    1.1010 O   0  0  0  0  0  0  0  0  0  0  0  0
    9.1810    0.8300    1.5220 O   0  0  0  0  0  0  0  0  0  0  0  0
    9.7920    0.3230    0.4550 O   0  0  0  0  0  0  0  0  0  0  0  0
   -3.5180    1.4570   -1.0200 C   0  0  2  0  0  0  0  0  0  0  0  0
   -3.1850    2.4980   -0.1130 O   0  0  0  0  0  0  0  0  0  0  0  0
  1  2  2  0
  2  3  1  0
  3  4  2  0
  3 33  1  0
  4  5  1  0
  5  6  2  0
  5 32  1  0
  6  7  1  0
  7  8  1  0
  8  9  1  0
  9 10  1  1
  9 15  1  0
  9 32  1  0
 10 11  1  0
 11 12  1  0
 12 13  2  0
 12 14  1  0
 15 16  1  0
 16 17  2  0
 16 18  1  0
 18 19  1  0
 19 20  2  0
 19 21  1  0
 21 22  1  0
 22 23  1  0
 23 24  1  0
 24 25  1  0
 24 26  1  0
 26 27  1  0
 27 28  1  0
 27 29  1  0
 29 30  1  0
 30 31  1  0
 32 33  1  1
M  END
