
     RDKit          3D

 33 35  0  0  0  0  0  0  0  0999 V2000
   -6.1570   -1.3640   -2.2850 C   0  0  0  0  0  0  0  0  0  0  0  0
   -4.9460   -0.8750   -1.6280 N   0  0  0  0  0  0  0  0  0  0  0  0
   -3.8800   -0.3000   -2.2110 C   0  0  0  0  0  0  0  0  0  0  0  0
   -2.9690    0.0140   -1.2740 N   0  0  0  0  0  0  0  0  0  0  0  0
   -1.6630    0.6560   -1.4840 C   0  0  2  0  0  0  0  0  0  0  0  0
   -0.6440   -0.0440   -0.8600 O   0  0  0  0  0  0  0  0  0  0  0  0
    0.3540    0.9190   -0.6490 C   0  0  2  0  0  0  0  0  0  0  0  0
    1.4430    0.4010    0.2520 C   0  0  0  0  0  0  0  0  0  0  0  0
    2.0050   -0.7050   -0.3430 O   0  0  0  0  0  0  0  0  0  0  0  0
    3.2460   -1.3990    0.5530 P   0  0  1  0  0  0  0  0  0  0  0  0
    3.9330   -0.4280    1.4610 O   0  0  0  0  0  0  0  0  0  0  0  0
    2.5590   -2.6710    1.4680 O   0  0  0  0  0  0  0  0  0  0  0  0
    4.4140   -2.1090   -0.4440 O   0  0  0  0  0  0  0  0  0  0  0  0
    5.6440   -1.0320   -0.7960 P   0  0  1  0  0  0  0  0  0  0  0  0
    7.0150   -1.6530   -0.6640 O   0  0  0  0  0  0  0  0  0  0  0  0
    5.5340   -0.4350   -2.3920 O   0  0  0  0  0  0  0  0  0  0  0  0
    5.5790    0.2900    0.2360 O   0  0  0  0  0  0  0  0  0  0  0  0
    7.0160    0.4760    1.1080 P   0  0  2  0  0  0  0  0  0  0  0  0
    7.5640   -0.8710    1.5050 O   0  0  0  0  0  0  0  0  0  0  0  0
    6.7240    1.4170    2.4820 O   0  0  0  0  0  0  0  0  0  0  0  0
    8.1260    1.3220    0.1320 O   0  0  0  0  0  0  0  0  0  0  0  0
   -0.4560    2.0190    0.0050 C   0  0  1  0  0  0  0  0  0  0  0  0
    0.2270    3.2300   -0.0010 O   0  0  0  0  0  0  0  0  0  0  0  0
   -1.6630    2.0490   -0.9100 C   0  0  1  0  0  0  0  0  0  0  0  0
   -1.4120    2.9380   -1.9360 O   0  0  0  0  0  0  0  0  0  0  0  0
   -3.4970   -0.3800   -0.0990 C   0  0  0  0  0  0  0  0  0  0  0  0
   -3.0250   -0.3140    1.1700 N   0  0  0  0  0  0  0  0  0  0  0  0
   -3.7830   -0.7950    2.1700 C   0  0  0  0  0  0  0  0  0  0  0  0
   -3.2700   -0.7190    3.5120 N   0  0  0  0  0  0  0  0  0  0  0  0
   -5.0040   -1.3470    1.9770 N   0  0  0  0  0  0  0  0  0  0  0  0
   -5.5040   -1.4300    0.7340 C   0  0  0  0  0  0  0  0  0  0  0  0
   -6.6380   -1.9470    0.5910 O   0  0  0  0  0  0  0  0  0  0  0  0
   -4.7410   -0.9410   -0.3020 C   0  0  0  0  0  0  0  0  0  0  0  0
  1  2  1  0
  2  3  2  0
  2 33  1  0
  3  4  1  0
  5  4  1  1
  4 26  1  0
  5  6  1  0
  5 24  1  0
  6  7  1  0
  7  8  1  1
  7 22  1  0
  8  9  1  0
  9 10  1  0
 10 11  2  0
 10 12  1  1
 10 13  1  0
 13 14  1  0
 14 15  2  0
 14 16  1  6
 14 17  1  0
 17 18  1  0
 18 19  2  0
 18 20  1  1
 18 21  1  0
 22 23  1  6
 22 24  1  0
 24 25  1  6
 26 27  1  0
 26 33  2  0
 27 28  2  0
 28 29  1  0
 28 30  1  0
 30 31  1  0
 31 32  2  0
 31 33  1  0
M  CHG  1   2   1
M  END
