
     RDKit          3D

 33 33  0  0  0  0  0  0  0  0999 V2000
  -11.0500   -2.1730    1.6220 O   0  0  0  0  0  0  0  0  0  0  0  0
   -9.5630   -1.8880    1.3450 P   0  0  0  0  0  0  0  0  0  0  0  0
   -9.1030   -0.9030   -0.0180 O   0  0  0  0  0  0  0  0  0  0  0  0
   -7.7270   -0.5980    0.0510 C   0  0  0  0  0  0  0  0  0  0  0  0
   -7.4260    0.2530   -1.1710 C   0  0  0  0  0  0  0  0  0  0  0  0
   -6.0440    0.6430   -1.2330 N   0  0  0  0  0  0  0  0  0  0  0  0
   -5.0320   -0.2590   -1.2910 C   0  0  0  0  0  0  0  0  0  0  0  0
   -5.3240   -1.5070   -1.2950 O   0  0  0  0  0  0  0  0  0  0  0  0
   -3.6890   -0.0780   -1.3500 N   0  0  0  0  0  0  0  0  0  0  0  0
   -2.3630    0.0780   -1.4070 C   0  0  0  0  0  0  0  0  0  0  0  0
   -1.7960   -1.0800   -1.4450 O   0  0  0  0  0  0  0  0  0  0  0  0
   -1.6110    1.2160   -1.4300 N   0  0  0  0  0  0  0  0  0  0  0  0
   -0.1710    1.1700   -1.4980 C   0  0  0  0  0  0  0  0  0  0  0  0
    0.4330    0.4810   -0.3210 C   0  0  1  0  0  0  0  0  0  0  0  0
    1.8460    0.4380   -0.3770 O   0  0  0  0  0  0  0  0  0  0  0  0
    2.5820   -0.7360   -0.3470 C   0  0  0  0  0  0  0  0  0  0  0  0
    1.9730   -1.8110   -0.2670 O   0  0  0  0  0  0  0  0  0  0  0  0
    3.9810   -0.7190   -0.4040 N   0  0  0  0  0  0  0  0  0  0  0  0
    4.7520   -1.9230   -0.3750 C   0  0  1  0  0  0  0  0  0  0  0  0
    5.6160   -2.1350   -1.5740 C   0  0  0  0  0  0  0  0  0  0  0  0
    6.8640   -2.3900   -0.9830 O   0  0  0  0  0  0  0  0  0  0  0  0
    6.8210   -1.7080    0.2310 C   0  0  1  0  0  0  0  0  0  0  0  0
    7.0020   -0.2550    0.0620 C   0  0  0  0  0  0  0  0  0  0  0  0
    7.1700    0.2100   -1.0930 O   0  0  0  0  0  0  0  0  0  0  0  0
    6.9830    0.5790    1.2030 N   0  0  0  0  0  0  0  0  0  0  0  0
    7.1510    1.9080    1.0200 O   0  0  0  0  0  0  0  0  0  0  0  0
    5.5660   -2.0280    0.7410 O   0  0  0  0  0  0  0  0  0  0  0  0
   -0.0010    1.4750    1.2010 P   0  0  0  0  0  0  0  0  0  0  0  0
   -1.5290    0.8330    1.7760 O   0  0  0  0  0  0  0  0  0  0  0  0
    1.1810    1.1160    2.4390 O   0  0  0  0  0  0  0  0  0  0  0  0
    1.1780    2.2920    3.6900 P   0  0  0  0  0  0  0  0  0  0  0  0
   -0.4100    2.8890    4.0070 O   0  0  0  0  0  0  0  0  0  0  0  0
    2.2370    3.6080    3.3270 O   0  0  0  0  0  0  0  0  0  0  0  0
  1  2  2  0
  2  3  1  0
  3  4  1  0
  4  5  1  0
  5  6  1  0
  6  7  1  0
  7  8  2  0
  7  9  1  0
  9 10  1  0
 10 11  2  0
 10 12  1  0
 12 13  1  0
 14 13  1  6
 14 15  1  0
 14 28  1  0
 15 16  1  0
 16 17  2  0
 16 18  1  0
 19 18  1  6
 19 20  1  0
 19 27  1  0
 20 21  1  0
 21 22  1  0
 22 23  1  6
 22 27  1  0
 23 24  2  0
 23 25  1  0
 25 26  1  0
 28 29  1  0
 28 30  1  0
 30 31  1  0
 31 32  1  0
 31 33  1  0
M  END
