
     RDKit          3D

 22 24  0  0  0  0  0  0  0  0999 V2000
   -5.1030   -1.8000    1.2920 C   0  0  0  0  0  0  0  0  0  0  0  0
   -4.4960   -0.6750    0.5770 N   0  0  0  0  0  0  0  0  0  0  0  0
   -3.1670   -0.7210    0.3010 C   0  0  0  0  0  0  0  0  0  0  0  0
   -2.6060    0.3460   -0.3800 C   0  0  0  0  0  0  0  0  0  0  0  0
   -3.4170    1.3890   -0.7390 C   0  0  0  0  0  0  0  0  0  0  0  0
   -2.7300    2.6450   -1.5480 S   0  0  0  0  0  0  0  0  0  0  0  0
   -4.7310    1.4350   -0.4660 N   0  0  0  0  0  0  0  0  0  0  0  0
   -5.5390    2.5690   -0.8690 C   0  0  0  0  0  0  0  0  0  0  0  0
   -5.2540    0.3690    0.2060 C   0  0  0  0  0  0  0  0  0  0  0  0
   -6.4810    0.4150    0.4590 O   0  0  0  0  0  0  0  0  0  0  0  0
   -1.2120    0.0170   -0.5270 N   0  0  0  0  0  0  0  0  0  0  0  0
   -0.9190   -0.9490    0.5170 C   0  0  2  0  0  0  0  0  0  0  0  0
    0.5110   -1.9780    0.1180 S   0  0  0  0  0  0  0  0  0  0  0  0
    1.9640   -0.9090    0.0550 C   0  0  0  0  0  0  0  0  0  0  0  0
    3.2260   -1.6740   -0.2190 C   0  0  0  0  0  0  0  0  0  0  0  0
    4.3190   -0.7760   -0.2760 N   0  0  0  0  0  0  0  0  0  0  0  0
    4.3930    0.1110   -1.3460 C   0  0  0  0  0  0  0  0  0  0  0  0
    4.3540    1.5410   -0.8800 C   0  0  0  0  0  0  0  0  0  0  0  0
    4.5810    1.6950    0.4750 O   0  0  0  0  0  0  0  0  0  0  0  0
    5.5900    0.8470    0.9330 C   0  0  0  0  0  0  0  0  0  0  0  0
    5.0650   -0.5730    0.8920 C   0  0  0  0  0  0  0  0  0  0  0  0
   -2.1560   -1.6770    0.5850 N   0  0  0  0  0  0  0  0  0  0  0  0
  1  2  1  0
  2  3  1  0
  2  9  1  0
  3  4  2  0
  3 22  1  0
  4  5  1  0
  4 11  1  0
  5  6  2  0
  5  7  1  0
  7  8  1  0
  7  9  1  0
  9 10  2  0
 11 12  1  0
 12 13  1  6
 12 22  1  0
 13 14  1  0
 14 15  1  0
 15 16  1  0
 16 17  1  0
 16 21  1  0
 17 18  1  0
 18 19  1  0
 19 20  1  0
 20 21  1  0
M  END
