
     RDKit          3D

 22 24  0  0  0  0  0  0  0  0999 V2000
    5.3000    1.4170   -1.3390 C   0  0  0  0  0  0  0  0  0  0  0  0
    4.4870    0.3570   -2.0120 C   0  0  0  0  0  0  0  0  0  0  0  0
    4.1790   -0.7850   -1.1130 C   0  0  0  0  0  0  0  0  0  0  0  0
    4.7810   -1.9930   -1.1490 N   0  0  0  0  0  0  0  0  0  0  0  0
    4.2550   -2.7550   -0.2070 N   0  0  0  0  0  0  0  0  0  0  0  0
    3.3070   -2.0990    0.4750 C   0  0  0  0  0  0  0  0  0  0  0  0
    3.2560   -0.8390   -0.1020 C   0  0  0  0  0  0  0  0  0  0  0  0
    2.3720    0.2790    0.2800 C   0  0  0  0  0  0  0  0  0  0  0  0
    1.5000   -0.0270    1.3630 N   0  0  0  0  0  0  0  0  0  0  0  0
    0.4600    1.2230    1.8420 S   0  0  1  0  0  0  0  0  0  0  0  0
    0.3340    1.1460    3.3580 O   0  0  0  0  0  0  0  0  0  0  0  0
    0.9950    2.5890    1.5070 O   0  0  0  0  0  0  0  0  0  0  0  0
   -1.1170    1.0030    1.2160 N   0  0  0  0  0  0  0  0  0  0  0  0
   -1.0910    1.0110   -0.2020 C   0  0  0  0  0  0  0  0  0  0  0  0
   -2.4460    0.9760   -0.8410 C   0  0  0  0  0  0  0  0  0  0  0  0
   -3.4160    0.1990   -0.1520 N   0  0  0  0  0  0  0  0  0  0  0  0
   -4.7440    0.7150   -0.3390 C   0  0  0  0  0  0  0  0  0  0  0  0
   -5.6690   -0.4520   -0.5700 C   0  0  0  0  0  0  0  0  0  0  0  0
   -5.4810   -1.5990    0.8220 S   0  0  0  0  0  0  0  0  0  0  0  0
   -3.7310   -1.6360    1.3090 C   0  0  0  0  0  0  0  0  0  0  0  0
   -3.1560   -0.2190    1.1630 C   0  0  1  0  0  0  0  0  0  0  0  0
   -1.7460   -0.2280    1.6340 C   0  0  0  0  0  0  0  0  0  0  0  0
  1  2  1  0
  2  3  1  0
  3  4  2  0
  3  7  1  0
  4  5  1  0
  5  6  1  0
  6  7  2  0
  7  8  1  0
  8  9  1  0
 10  9  1  6
 10 11  2  0
 10 12  2  0
 10 13  1  0
 13 14  1  0
 13 22  1  0
 14 15  1  0
 15 16  1  0
 16 17  1  0
 16 21  1  0
 17 18  1  0
 18 19  1  0
 19 20  1  0
 21 20  1  6
 21 22  1  0
M  END
