
     RDKit          3D

 22 24  0  0  0  0  0  0  0  0999 V2000
    6.3040    0.7750    1.0400 C   0  0  0  0  0  0  0  0  0  0  0  0
    4.9900    0.4880    0.6520 C   0  0  0  0  0  0  0  0  0  0  0  0
    3.5180    1.4420    1.1330 S   0  0  0  0  0  0  0  0  0  0  0  0
    2.2950    0.3740    0.2000 C   0  0  0  0  0  0  0  0  0  0  0  0
    0.9110    0.6680    0.2210 N   0  0  0  0  0  0  0  0  0  0  0  0
    0.2700    1.7780    0.8990 C   0  0  0  0  0  0  0  0  0  0  0  0
   -1.1170    1.8760    0.2840 C   0  0  0  0  0  0  0  0  0  0  0  0
   -1.2540    0.7330   -0.4720 N   0  0  0  0  0  0  0  0  0  0  0  0
   -2.4000    0.3060   -1.0900 C   0  0  0  0  0  0  0  0  0  0  0  0
   -3.5700   -0.1740   -0.3430 C   0  0  1  0  0  0  0  0  0  0  0  0
   -3.3080   -1.3620    0.5490 C   0  0  0  0  0  0  0  0  0  0  0  0
   -4.3360    0.7960    0.3910 N   0  0  0  0  0  0  0  0  0  0  0  0
   -5.6120    0.1470    0.6240 C   0  0  0  0  0  0  0  0  0  0  0  0
   -6.4220    0.3220    1.5650 O   0  0  0  0  0  0  0  0  0  0  0  0
   -5.8130   -0.7800   -0.4510 N   0  0  0  0  0  0  0  0  0  0  0  0
   -4.6580   -0.6590   -1.2920 C   0  0  0  0  0  0  0  0  0  0  0  0
   -4.5800   -0.9000   -2.5100 O   0  0  0  0  0  0  0  0  0  0  0  0
   -0.1170   -0.1110   -0.4390 C   0  0  0  0  0  0  0  0  0  0  0  0
    3.0990   -0.4410   -0.2730 N   0  0  0  0  0  0  0  0  0  0  0  0
    4.3570   -0.4970   -0.1400 C   0  0  0  0  0  0  0  0  0  0  0  0
    5.2310   -1.5680   -0.7860 C   0  0  0  0  0  0  0  0  0  0  0  0
    4.2480   -2.7310   -1.7530 S   0  0  0  0  0  0  0  0  0  0  0  0
  1  2  1  0
  2  3  1  0
  2 20  2  0
  3  4  1  0
  4  5  1  0
  4 19  2  0
  5  6  1  0
  5 18  1  0
  6  7  1  0
  7  8  1  0
  8  9  1  0
  8 18  1  0
  9 10  1  0
 10 11  1  1
 10 12  1  0
 10 16  1  0
 12 13  1  0
 13 14  2  0
 13 15  1  0
 15 16  1  0
 16 17  2  0
 19 20  1  0
 20 21  1  0
 21 22  1  0
M  END
