
     RDKit          3D

 22 23  0  0  0  0  0  0  0  0999 V2000
   -1.3770    4.7170   -0.4390 C   0  0  0  0  0  0  0  0  0  0  0  0
   -0.5000    3.7760   -0.1750 C   0  0  0  0  0  0  0  0  0  0  0  0
   -0.2310    2.5990   -1.0110 C   0  0  0  0  0  0  0  0  0  0  0  0
   -0.4510    1.3410   -0.3150 N   0  0  0  0  0  0  0  0  0  0  0  0
   -1.6070    0.7020    0.1410 C   0  0  0  0  0  0  0  0  0  0  0  0
   -2.9850    1.2880   -0.0560 C   0  0  0  0  0  0  0  0  0  0  0  0
   -1.3710   -0.4310    0.7370 C   0  0  0  0  0  0  0  0  0  0  0  0
   -2.5210   -1.5570    1.4590 S   0  0  2  0  0  0  0  0  0  0  0  0
   -3.7060   -0.8340    2.0190 O   0  0  0  0  0  0  0  0  0  0  0  0
   -1.7800   -2.2970    2.5590 O   0  0  0  0  0  0  0  0  0  0  0  0
   -2.9520   -2.7080    0.2760 N   0  0  0  0  0  0  0  0  0  0  0  0
   -3.5840   -2.0440   -0.8340 C   0  0  0  0  0  0  0  0  0  0  0  0
    0.0810   -0.6390    0.7240 C   0  0  0  0  0  0  0  0  0  0  0  0
    0.6370   -1.6900    1.2560 N   0  0  0  0  0  0  0  0  0  0  0  0
    2.0380   -2.0240    1.3160 C   0  0  0  0  0  0  0  0  0  0  0  0
    2.4150   -2.8140    2.3090 C   0  0  0  0  0  0  0  0  0  0  0  0
    3.1210   -1.6230    0.4320 C   0  0  0  0  0  0  0  0  0  0  0  0
    4.1330   -2.4010    0.2780 N   0  0  0  0  0  0  0  0  0  0  0  0
    3.1350   -0.0900   -0.4870 S   0  0  1  0  0  0  0  0  0  0  0  0
    4.3510   -0.1340   -1.7980 C   0  0  0  0  0  0  0  0  0  0  0  0
    1.5250    0.1860   -1.0720 N   0  0  0  0  0  0  0  0  0  0  0  0
    0.6900    0.4870    0.0470 C   0  0  1  0  0  0  0  0  0  0  0  0
  1  2  2  0
  2  3  1  0
  3  4  1  0
  4  5  1  0
  4 22  1  0
  5  6  1  0
  5  7  2  0
  7  8  1  0
  7 13  1  0
  8  9  2  0
  8 10  2  0
  8 11  1  6
 11 12  1  0
 13 14  2  0
 13 22  1  0
 14 15  1  0
 15 16  2  0
 15 17  1  0
 17 18  2  0
 17 19  1  0
 19 20  1  6
 19 21  1  0
 22 21  1  6
M  END
