
     RDKit          3D

 22 23  0  0  0  0  0  0  0  0999 V2000
   -3.9640    2.3210   -2.9260 C   0  0  0  0  0  0  0  0  0  0  0  0
   -4.8790    2.5410   -1.4000 S   0  0  0  0  0  0  0  0  0  0  0  0
   -4.0170    1.8330    0.0250 C   0  0  1  0  0  0  0  0  0  0  0  0
   -3.9140    0.4140   -0.0350 N   0  0  0  0  0  0  0  0  0  0  0  0
   -2.6820   -0.0940   -0.4780 C   0  0  0  0  0  0  0  0  0  0  0  0
   -2.5180   -1.1080   -1.2110 O   0  0  0  0  0  0  0  0  0  0  0  0
   -1.5620    0.6810   -0.0030 C   0  0  0  0  0  0  0  0  0  0  0  0
   -0.3530    0.4910    0.3910 C   0  0  0  0  0  0  0  0  0  0  0  0
    0.5270    1.5580    0.8070 N   0  0  0  0  0  0  0  0  0  0  0  0
    1.8230    1.2720    1.2720 C   0  0  0  0  0  0  0  0  0  0  0  0
    2.4790    2.1510    1.9470 O   0  0  0  0  0  0  0  0  0  0  0  0
    2.4730   -0.0210    1.0100 C   0  0  2  0  0  0  0  0  0  0  0  0
    3.7890    0.1530    0.4150 N   0  0  0  0  0  0  0  0  0  0  0  0
    4.7730    0.8960    1.1860 C   0  0  0  0  0  0  0  0  0  0  0  0
    4.0440   -0.3940   -0.8520 C   0  0  0  0  0  0  0  0  0  0  0  0
    4.2320    0.3830   -1.8660 N   0  0  0  0  0  0  0  0  0  0  0  0
    1.6310   -0.8750    0.1050 C   0  0  0  0  0  0  0  0  0  0  0  0
    0.2140   -0.7980    0.5030 N   0  0  0  0  0  0  0  0  0  0  0  0
   -0.3890   -1.9750    0.9880 C   0  0  2  0  0  0  0  0  0  0  0  0
   -0.3890   -3.0900   -0.0270 C   0  0  0  0  0  0  0  0  0  0  0  0
   -1.6530   -1.9100    1.7340 C   0  0  0  0  0  0  0  0  0  0  0  0
   -2.2840    2.3580    0.0330 S   0  0  0  0  0  0  0  0  0  0  0  0
  1  2  1  0
  3  2  1  6
  3  4  1  0
  3 22  1  0
  4  5  1  0
  5  6  2  0
  5  7  1  0
  7  8  2  3
  7 22  1  0
  8  9  1  0
  8 18  1  0
  9 10  1  0
 10 11  2  0
 10 12  1  0
 12 13  1  6
 12 17  1  0
 13 14  1  0
 13 15  1  0
 15 16  2  0
 17 18  1  0
 18 19  1  0
 19 20  1  6
 19 21  1  0
M  END
