
     RDKit          3D

 22 24  0  0  0  0  0  0  0  0999 V2000
   -1.6580    2.8930   -0.6220 N   0  0  0  0  0  0  0  0  0  0  0  0
   -1.1290    1.5790   -0.6970 C   0  0  0  0  0  0  0  0  0  0  0  0
    0.1760    1.2800   -1.0490 C   0  0  0  0  0  0  0  0  0  0  0  0
    0.3400   -0.0910   -1.0160 C   0  0  0  0  0  0  0  0  0  0  0  0
    1.6100   -0.8270   -1.3330 C   0  0  0  0  0  0  0  0  0  0  0  0
    2.4030   -0.9910   -0.1010 N   0  0  0  0  0  0  0  0  0  0  0  0
    1.9520   -1.6810    1.0680 C   0  0  0  0  0  0  0  0  0  0  0  0
    3.0210   -2.7190    1.4420 C   0  0  0  0  0  0  0  0  0  0  0  0
    4.4920   -1.6250    1.2350 S   0  0  0  0  0  0  0  0  0  0  0  0
    3.7150   -0.4800    0.0810 C   0  0  0  0  0  0  0  0  0  0  0  0
    4.2500    0.5610   -0.4470 N   0  0  0  0  0  0  0  0  0  0  0  0
    5.8510    1.0680   -0.1410 S   0  0  2  0  0  0  0  0  0  0  0  0
    5.8750    2.3560    0.6620 O   0  0  0  0  0  0  0  0  0  0  0  0
    6.5190    1.4070   -1.4630 O   0  0  0  0  0  0  0  0  0  0  0  0
   -0.8480   -0.5840   -0.6510 N   0  0  0  0  0  0  0  0  0  0  0  0
   -1.7330    0.3910   -0.4570 N   0  0  0  0  0  0  0  0  0  0  0  0
   -3.0920    0.2290   -0.0630 C   0  0  0  0  0  0  0  0  0  0  0  0
   -4.0640    1.1400   -0.4220 C   0  0  0  0  0  0  0  0  0  0  0  0
   -5.3780    0.9740   -0.0350 C   0  0  0  0  0  0  0  0  0  0  0  0
   -5.7450   -0.1280    0.7310 C   0  0  0  0  0  0  0  0  0  0  0  0
   -4.7990   -1.0370    1.0950 C   0  0  0  0  0  0  0  0  0  0  0  0
   -3.4890   -0.8450    0.6930 C   0  0  0  0  0  0  0  0  0  0  0  0
  1  2  1  0
  2  3  2  0
  2 16  1  0
  3  4  1  0
  4  5  1  0
  4 15  2  0
  5  6  1  0
  6  7  1  0
  6 10  1  0
  7  8  1  0
  8  9  1  0
  9 10  1  0
 10 11  2  3
 12 11  1  6
 12 13  2  0
 12 14  2  0
 15 16  1  0
 16 17  1  0
 17 18  2  0
 17 22  1  0
 18 19  1  0
 19 20  2  0
 20 21  1  0
 21 22  2  0
M  END
