
     RDKit          3D

 22 24  0  0  0  0  0  0  0  0999 V2000
   -1.4680   -3.7440   -1.0460 O   0  0  0  0  0  0  0  0  0  0  0  0
   -1.5650   -2.2590   -0.8510 S   0  0  0  0  0  0  0  0  0  0  0  0
   -3.0120   -1.5200   -1.3160 C   0  0  0  0  0  0  0  0  0  0  0  0
   -3.8100   -2.2630   -2.6320 S   0  0  0  0  0  0  0  0  0  0  0  0
   -3.7030   -0.4120   -0.8410 N   0  0  0  0  0  0  0  0  0  0  0  0
   -3.3720    0.4710    0.2430 C   0  0  0  0  0  0  0  0  0  0  0  0
   -4.5130    1.4200    0.5310 C   0  0  0  0  0  0  0  0  0  0  0  0
   -5.6940    1.5130   -0.0610 N   0  0  0  0  0  0  0  0  0  0  0  0
   -6.4020    2.5160    0.5340 C   0  0  0  0  0  0  0  0  0  0  0  0
   -5.5900    2.9960    1.4860 N   0  0  0  0  0  0  0  0  0  0  0  0
   -4.4610    2.3170    1.4610 O   0  0  0  0  0  0  0  0  0  0  0  0
   -0.0830   -1.3910   -0.6650 C   0  0  1  0  0  0  0  0  0  0  0  0
   -0.1120   -0.3290    0.3670 C   0  0  0  0  0  0  0  0  0  0  0  0
    1.1990   -0.0630    1.0810 C   0  0  0  0  0  0  0  0  0  0  0  0
    2.3570   -0.3520    0.2890 N   0  0  0  0  0  0  0  0  0  0  0  0
    3.5180    0.4530    0.4570 C   0  0  0  0  0  0  0  0  0  0  0  0
    4.7910    0.0300    0.4270 C   0  0  0  0  0  0  0  0  0  0  0  0
    5.7030    1.1720    0.6420 C   0  0  0  0  0  0  0  0  0  0  0  0
    4.7730    2.3020    0.8000 C   0  0  0  0  0  0  0  0  0  0  0  0
    3.5820    1.8500    0.6890 N   0  0  0  0  0  0  0  0  0  0  0  0
    2.3530   -1.4610   -0.6750 C   0  0  0  0  0  0  0  0  0  0  0  0
    1.1070   -2.3130   -0.3580 C   0  0  0  0  0  0  0  0  0  0  0  0
  1  2  2  0
  2  3  1  6
  2 12  1  0
  3  4  2  0
  3  5  1  0
  5  6  1  0
  6  7  1  0
  7  8  2  0
  7 11  1  0
  8  9  1  0
  9 10  2  0
 10 11  1  0
 12 13  1  1
 12 22  1  0
 13 14  1  0
 14 15  1  0
 15 16  1  0
 15 21  1  0
 16 17  2  0
 16 20  1  0
 17 18  1  0
 18 19  1  0
 19 20  2  0
 21 22  1  0
M  END
