
     RDKit          3D

 15 15  0  0  0  0  0  0  0  0999 V2000
   -1.3420   -0.4710   -1.3650 O   0  0  0  0  0  0  0  0  0  0  0  0
   -0.6440   -0.5080   -0.3220 C   0  0  0  0  0  0  0  0  0  0  0  0
   -1.2940   -0.2760    0.8560 O   0  0  0  0  0  0  0  0  0  0  0  0
   -2.6200    0.0020    1.1030 C   0  0  0  0  0  0  0  0  0  0  0  0
   -3.2020    1.2340    0.5070 C   0  0  0  0  0  0  0  0  0  0  0  0
   -3.1700    1.3040   -0.8710 O   0  0  0  0  0  0  0  0  0  0  0  0
    0.7940   -0.7960   -0.4710 C   0  0  1  0  0  0  0  0  0  0  0  0
    1.4820   -0.8180    0.7200 O   0  0  0  0  0  0  0  0  0  0  0  0
    1.3550    0.7210    1.5110 P   0  0  0  0  0  0  0  0  0  0  0  0
    2.6030    0.7610    2.7370 O   0  0  0  0  0  0  0  0  0  0  0  0
    1.7550    1.9410    0.3180 O   0  0  0  0  0  0  0  0  0  0  0  0
    1.0610   -2.0620   -1.2600 C   0  0  0  0  0  0  0  0  0  0  0  0
    2.2800   -1.7930   -1.8710 O   0  0  0  0  0  0  0  0  0  0  0  0
    2.6580   -0.5110   -1.4760 C   0  0  0  0  0  0  0  0  0  0  0  0
    1.4410    0.1510   -1.2930 O   0  0  0  0  0  0  0  0  0  0  0  0
  1  2  2  0
  2  3  1  0
  2  7  1  0
  3  4  1  0
  4  5  1  0
  5  6  1  0
  7  8  1  1
  7 12  1  0
  7 15  1  0
  8  9  1  0
  9 10  1  0
  9 11  1  0
 12 13  1  0
 13 14  1  0
 14 15  1  0
M  END
