
     RDKit          3D

 15 15  0  0  0  0  0  0  0  0999 V2000
   -4.2180    1.8290   -0.9180 O   0  0  0  0  0  0  0  0  0  0  0  0
   -4.1390    0.6460   -1.8930 P   0  0  0  0  0  0  0  0  0  0  0  0
   -3.3970   -0.8780   -1.4680 O   0  0  0  0  0  0  0  0  0  0  0  0
   -2.3050   -0.6040   -0.6890 C   0  0  1  0  0  0  0  0  0  0  0  0
   -2.3980   -1.2580    0.6960 C   0  0  0  0  0  0  0  0  0  0  0  0
   -1.0610   -1.1800    1.0880 O   0  0  0  0  0  0  0  0  0  0  0  0
   -0.3060   -1.3440   -0.0460 C   0  0  2  0  0  0  0  0  0  0  0  0
    0.8050   -0.3650   -0.1490 C   0  0  0  0  0  0  0  0  0  0  0  0
    1.5530   -0.4370   -1.1550 O   0  0  0  0  0  0  0  0  0  0  0  0
    1.0700    0.6190    0.7890 O   0  0  0  0  0  0  0  0  0  0  0  0
    2.1460    1.5290    0.6410 C   0  0  0  0  0  0  0  0  0  0  0  0
    3.4390    0.8370    0.5750 C   0  0  0  0  0  0  0  0  0  0  0  0
    3.4790   -0.4070    0.6500 O   0  0  0  0  0  0  0  0  0  0  0  0
    4.6040    1.5510    0.4320 O   0  0  0  0  0  0  0  0  0  0  0  0
   -1.1210   -1.1670   -1.1480 O   0  0  0  0  0  0  0  0  0  0  0  0
  1  2  2  0
  2  3  1  0
  4  3  1  6
  4  5  1  0
  4 15  1  0
  5  6  1  0
  6  7  1  0
  7  8  1  6
  7 15  1  0
  8  9  2  0
  8 10  1  0
 10 11  1  0
 11 12  1  0
 12 13  2  0
 12 14  1  0
M  END
