
     RDKit          3D

 15 15  0  0  0  0  0  0  0  0999 V2000
   -0.2410    1.5060    0.8500 O   0  0  0  0  0  0  0  0  0  0  0  0
   -0.7930    0.4000    0.6150 C   0  0  0  0  0  0  0  0  0  0  0  0
   -0.0900   -0.7270    0.9410 O   0  0  0  0  0  0  0  0  0  0  0  0
    1.1870   -0.7670    1.5120 C   0  0  0  0  0  0  0  0  0  0  0  0
    2.2550   -0.1200    0.7010 C   0  0  0  0  0  0  0  0  0  0  0  0
    2.3980   -0.7210   -0.5660 O   0  0  0  0  0  0  0  0  0  0  0  0
    3.6290    0.0280   -1.4950 P   0  0  0  0  0  0  0  0  0  0  0  0
    5.1590   -0.7380   -1.3660 O   0  0  0  0  0  0  0  0  0  0  0  0
    3.7260    1.7320   -1.2330 O   0  0  0  0  0  0  0  0  0  0  0  0
   -2.1400    0.4160    0.0130 C   0  0  2  0  0  0  0  0  0  0  0  0
   -2.5910    1.6980   -0.2020 O   0  0  0  0  0  0  0  0  0  0  0  0
   -3.1310   -0.3940    0.8570 C   0  0  0  0  0  0  0  0  0  0  0  0
   -3.9280   -1.0270   -0.0890 O   0  0  0  0  0  0  0  0  0  0  0  0
   -3.5890   -0.4500   -1.3110 C   0  0  0  0  0  0  0  0  0  0  0  0
   -2.2080   -0.2710   -1.1940 O   0  0  0  0  0  0  0  0  0  0  0  0
  1  2  2  0
  2  3  1  0
  2 10  1  0
  3  4  1  0
  4  5  1  0
  5  6  1  0
  6  7  1  0
  7  8  1  0
  7  9  1  0
 10 11  1  6
 10 12  1  0
 10 15  1  0
 12 13  1  0
 13 14  1  0
 14 15  1  0
M  END
