
     RDKit          3D

 15 15  0  0  0  0  0  0  0  0999 V2000
   -4.3290   -1.6230    0.2250 O   0  0  0  0  0  0  0  0  0  0  0  0
   -3.5940   -0.6070    0.1660 C   0  0  0  0  0  0  0  0  0  0  0  0
   -3.7470    0.4150    1.0860 O   0  0  0  0  0  0  0  0  0  0  0  0
   -2.5520   -0.4660   -0.8740 C   0  0  1  0  0  0  0  0  0  0  0  0
   -1.8770    0.7210   -0.7370 O   0  0  0  0  0  0  0  0  0  0  0  0
   -0.9540    0.7230    0.2940 C   0  0  0  0  0  0  0  0  0  0  0  0
    0.1030   -0.3370    0.1640 C   0  0  2  0  0  0  0  0  0  0  0  0
    1.4040    0.3190   -0.2180 C   0  0  0  0  0  0  0  0  0  0  0  0
    2.4390   -0.6050   -0.3580 O   0  0  0  0  0  0  0  0  0  0  0  0
    3.8810    0.2560   -0.7970 P   0  0  0  0  0  0  0  0  0  0  0  0
    5.2960   -0.4350   -0.1010 O   0  0  0  0  0  0  0  0  0  0  0  0
    3.7830    1.9260   -0.3440 O   0  0  0  0  0  0  0  0  0  0  0  0
   -0.3320   -1.3590   -0.8040 C   0  0  0  0  0  0  0  0  0  0  0  0
    0.5170   -1.9950   -1.4860 O   0  0  0  0  0  0  0  0  0  0  0  0
   -1.6920   -1.5830   -0.9260 O   0  0  0  0  0  0  0  0  0  0  0  0
  1  2  2  0
  2  3  1  0
  4  2  1  1
  4  5  1  0
  4 15  1  0
  5  6  1  0
  6  7  1  0
  7  8  1  6
  7 13  1  0
  8  9  1  0
  9 10  1  0
 10 11  1  0
 10 12  1  0
 13 14  2  0
 13 15  1  0
M  END
