
     RDKit          3D

 16 16  0  0  0  0  0  0  0  0999 V2000
   -2.6000   -0.1940   -3.0590 O   0  0  0  0  0  0  0  0  0  0  0  0
   -2.9660    0.0250   -1.8700 C   0  0  0  0  0  0  0  0  0  0  0  0
   -3.8380   -0.8170   -1.1480 O   0  0  0  0  0  0  0  0  0  0  0  0
   -4.0080   -0.2220    0.1320 C   0  0  0  0  0  0  0  0  0  0  0  0
   -5.0130   -0.3970    0.8550 O   0  0  0  0  0  0  0  0  0  0  0  0
   -2.8090    0.5510    0.3100 C   0  0  1  0  0  0  0  0  0  0  0  0
   -2.7770    1.6530    1.1210 O   0  0  0  0  0  0  0  0  0  0  0  0
   -1.5050   -0.2900    0.4880 C   0  0  0  0  0  0  0  0  0  0  0  0
   -0.4920    0.5500   -0.0070 O   0  0  0  0  0  0  0  0  0  0  0  0
    0.7370    0.4950    0.2970 C   0  0  0  0  0  0  0  0  0  0  0  0
    1.5830   -0.7310    0.1620 C   0  0  0  0  0  0  0  0  0  0  0  0
    2.8830   -0.2720    0.6720 O   0  0  0  0  0  0  0  0  0  0  0  0
    4.0210   -0.2230   -0.5630 P   0  0  0  0  0  0  0  0  0  0  0  0
    4.6290    1.4230   -0.6190 O   0  0  0  0  0  0  0  0  0  0  0  0
    5.2450   -1.3630   -0.5260 O   0  0  0  0  0  0  0  0  0  0  0  0
   -2.6220    1.0510   -1.0460 O   0  0  0  0  0  0  0  0  0  0  0  0
  1  2  2  0
  2  3  1  0
  2 16  1  0
  3  4  1  0
  4  5  2  0
  4  6  1  0
  6  7  1  1
  6  8  1  0
  6 16  1  0
  8  9  1  0
  9 10  1  0
 10 11  1  0
 11 12  1  0
 12 13  1  0
 13 14  1  0
 13 15  1  0
M  END
