
     RDKit          3D

 24 23  0  0  0  0  0  0  0  0999 V2000
   -7.4840   -0.4290    0.1840 C   0  0  0  0  0  0  0  0  0  0  0  0
   -6.2660   -1.0400   -0.4370 C   0  0  0  0  0  0  0  0  0  0  0  0
   -6.4370   -2.1750   -1.3780 C   0  0  0  0  0  0  0  0  0  0  0  0
   -5.0420   -0.5710   -0.1500 C   0  0  0  0  0  0  0  0  0  0  0  0
   -4.8580    0.5570    0.7840 C   0  0  0  0  0  0  0  0  0  0  0  0
   -4.1430    1.6760    0.1320 C   0  0  0  0  0  0  0  0  0  0  0  0
   -2.7480    1.4600   -0.2650 C   0  0  0  0  0  0  0  0  0  0  0  0
   -2.0760    2.5790   -1.0110 C   0  0  0  0  0  0  0  0  0  0  0  0
   -2.0740    0.3650   -0.0060 C   0  0  0  0  0  0  0  0  0  0  0  0
   -0.6390    0.2760   -0.4800 C   0  0  0  0  0  0  0  0  0  0  0  0
    0.2280    0.0790    0.7660 C   0  0  0  0  0  0  0  0  0  0  0  0
    1.6620   -0.0200    0.3990 C   0  0  0  0  0  0  0  0  0  0  0  0
    2.0620   -1.1430   -0.5270 C   0  0  0  0  0  0  0  0  0  0  0  0
    2.5590    0.8370    0.8600 C   0  0  0  0  0  0  0  0  0  0  0  0
    3.9520    0.6880    0.4630 C   0  0  0  0  0  0  0  0  0  0  0  0
    4.8300    0.4840    1.5240 O   0  0  0  0  0  0  0  0  0  0  0  0
    6.3690    0.3410    0.8280 P   0  0  1  0  0  0  0  0  0  0  0  0
    7.1140    1.6410    0.8430 O   0  0  0  0  0  0  0  0  0  0  0  0
    7.2650   -0.8080    1.7260 O   0  0  0  0  0  0  0  0  0  0  0  0
    6.2130   -0.2900   -0.7370 O   0  0  0  0  0  0  0  0  0  0  0  0
    7.5980   -1.1210   -1.2210 P   0  0  1  0  0  0  0  0  0  0  0  0
    7.2610   -2.2300   -2.2080 O   0  0  0  0  0  0  0  0  0  0  0  0
    8.5930   -0.0180   -2.0450 O   0  0  0  0  0  0  0  0  0  0  0  0
    8.4210   -1.8170    0.0600 O   0  0  0  0  0  0  0  0  0  0  0  0
  1  2  1  0
  2  3  1  0
  2  4  2  3
  4  5  1  0
  5  6  1  0
  6  7  1  0
  7  8  1  0
  7  9  2  3
  9 10  1  0
 10 11  1  0
 11 12  1  0
 12 13  1  0
 12 14  2  3
 14 15  1  0
 15 16  1  0
 16 17  1  0
 17 18  2  0
 17 19  1  1
 17 20  1  0
 20 21  1  0
 21 22  2  0
 21 23  1  6
 21 24  1  0
M  END
