
     RDKit          3D

 40 46  0  0  0  0  0  0  0  0999 V2000
   -2.6630   -1.4080    0.2730 C   0  0  0  0  0  0  0  0  0  0  0  0
   -1.7630   -0.6540    0.0030 C   0  0  0  0  0  0  0  0  0  0  0  0
   -0.6710    0.2870   -0.3120 C   0  0  0  0  0  0  0  0  0  0  0  0
    0.5470   -0.1360   -0.4450 N   0  0  0  0  0  0  0  0  0  0  0  0
    1.5460    0.5670   -0.7610 C   0  0  0  0  0  0  0  0  0  0  0  0
    2.9620    0.3340   -0.9760 C   0  0  0  0  0  0  0  0  0  0  0  0
    3.4510   -0.9280   -0.7430 C   0  0  0  0  0  0  0  0  0  0  0  0
    4.7820   -1.2390   -0.9350 C   0  0  0  0  0  0  0  0  0  0  0  0
    5.6330   -0.2390   -1.3760 C   0  0  0  0  0  0  0  0  0  0  0  0
    5.1750    1.0410   -1.6200 C   0  0  0  0  0  0  0  0  0  0  0  0
    6.2280    1.8130   -2.0490 C   0  0  0  0  0  0  0  0  0  0  0  0
    7.3520    0.9970   -2.0680 C   0  0  0  0  0  0  0  0  0  0  0  0
    6.9660   -0.2230   -1.6610 N   0  0  0  0  0  0  0  0  0  0  0  0
    7.8050   -1.3940   -1.5040 C   0  0  0  0  0  0  0  0  0  0  0  0
    8.4300   -1.3910   -0.1320 C   0  0  2  0  0  0  0  0  0  0  0  0
    9.3050   -2.5550    0.1620 C   0  0  0  0  0  0  0  0  0  0  0  0
    9.1480   -2.8170    1.6320 C   0  0  0  0  0  0  0  0  0  0  0  0
    8.1610   -1.7990    2.1070 C   0  0  0  0  0  0  0  0  0  0  0  0
    7.4440   -1.3180    0.9290 N   0  0  0  0  0  0  0  0  0  0  0  0
    3.8250    1.3040   -1.4110 C   0  0  0  0  0  0  0  0  0  0  0  0
    0.7680    2.1940   -0.9410 S   0  0  0  0  0  0  0  0  0  0  0  0
   -0.9420    1.5980   -0.5190 C   0  0  0  0  0  0  0  0  0  0  0  0
   -2.1100    2.4880   -0.4400 C   0  0  2  0  0  0  0  0  0  0  0  0
   -2.7400    2.6640    0.7880 N   0  0  0  0  0  0  0  0  0  0  0  0
   -3.2950    1.6150    1.5340 C   0  0  0  0  0  0  0  0  0  0  0  0
   -4.0550    2.3870    2.6480 C   0  0  0  0  0  0  0  0  0  0  0  0
   -3.3090    3.6710    2.7890 C   0  0  0  0  0  0  0  0  0  0  0  0
   -2.1900    3.5660    1.7410 C   0  0  0  0  0  0  0  0  0  0  0  0
   -3.1500    1.9470   -1.4290 C   0  0  0  0  0  0  0  0  0  0  0  0
   -4.1640    2.9520   -1.8460 C   0  0  0  0  0  0  0  0  0  0  0  0
   -4.1630    4.1960   -1.0080 C   0  0  0  0  0  0  0  0  0  0  0  0
   -2.7880    4.8150   -1.1380 C   0  0  0  0  0  0  0  0  0  0  0  0
   -1.6620    3.8820   -0.9250 C   0  0  0  0  0  0  0  0  0  0  0  0
   -3.7790   -2.3460    0.6210 C   0  0  0  0  0  0  0  0  0  0  0  0
   -3.9800   -3.2910   -0.4030 N   0  0  0  0  0  0  0  0  0  0  0  0
   -4.9000   -4.3320   -0.2700 C   0  0  0  0  0  0  0  0  0  0  0  0
   -6.3290   -3.8850   -0.2810 C   0  0  2  0  0  0  0  0  0  0  0  0
   -6.7170   -2.9630    0.8060 C   0  0  0  0  0  0  0  0  0  0  0  0
   -8.0260   -3.7830    0.9380 C   0  0  0  0  0  0  0  0  0  0  0  0
   -7.2660   -4.9290    0.3310 C   0  0  0  0  0  0  0  0  0  0  0  0
  1  2  3  0
  1 34  1  0
  2  3  1  0
  3  4  1  0
  3 22  2  0
  4  5  2  0
  5  6  1  0
  5 21  1  0
  6  7  2  0
  6 20  1  0
  7  8  1  0
  8  9  2  0
  9 10  1  0
  9 13  1  0
 10 11  1  0
 10 20  2  0
 11 12  2  0
 12 13  1  0
 13 14  1  0
 15 14  1  6
 15 16  1  0
 15 19  1  0
 16 17  1  0
 17 18  1  0
 18 19  1  0
 21 22  1  0
 22 23  1  0
 23 24  1  1
 23 29  1  0
 23 33  1  0
 24 25  1  0
 24 28  1  0
 25 26  1  0
 26 27  1  0
 27 28  1  0
 29 30  1  0
 30 31  1  0
 31 32  1  0
 32 33  1  0
 34 35  1  0
 35 36  1  0
 37 36  1  1
 37 38  1  0
 37 40  1  0
 38 39  1  0
 39 40  1  0
M  END
