
     RDKit          3D

 40 44  0  0  0  0  0  0  0  0999 V2000
   -0.4330    7.0090    1.8110 C   0  0  0  0  0  0  0  0  0  0  0  0
   -1.1780    6.8370    0.4940 C   0  0  0  0  0  0  0  0  0  0  0  0
   -1.3570    5.3870    0.2530 C   0  0  0  0  0  0  0  0  0  0  0  0
   -2.4310    4.6960    0.7690 C   0  0  0  0  0  0  0  0  0  0  0  0
   -2.6010    3.3280    0.5300 C   0  0  0  0  0  0  0  0  0  0  0  0
   -1.7080    2.6210   -0.2310 C   0  0  0  0  0  0  0  0  0  0  0  0
   -1.8720    1.1870   -0.5660 C   0  0  0  0  0  0  0  0  0  0  0  0
   -3.0330    0.7030   -1.1170 N   0  0  0  0  0  0  0  0  0  0  0  0
   -2.9530   -0.5650   -1.3670 N   0  0  0  0  0  0  0  0  0  0  0  0
   -3.9670   -1.4510   -1.9710 C   0  0  0  0  0  0  0  0  0  0  0  0
   -1.7060   -0.9470   -0.9680 C   0  0  0  0  0  0  0  0  0  0  0  0
   -1.3110   -2.2970   -1.0850 O   0  0  0  0  0  0  0  0  0  0  0  0
   -2.1560   -3.2510   -0.4570 C   0  0  0  0  0  0  0  0  0  0  0  0
   -2.4140   -4.3690   -1.0870 C   0  0  0  0  0  0  0  0  0  0  0  0
   -3.2580   -5.4470   -0.5780 C   0  0  2  0  0  0  0  0  0  0  0  0
   -2.4840   -6.6190   -0.4270 F   0  0  0  0  0  0  0  0  0  0  0  0
   -4.2310   -5.7070   -1.5530 F   0  0  0  0  0  0  0  0  0  0  0  0
   -3.9390   -5.2030    0.7070 C   0  0  0  0  0  0  0  0  0  0  0  0
   -3.5850   -3.9560    1.3720 C   0  0  0  0  0  0  0  0  0  0  0  0
   -2.7650   -3.0560    0.8260 C   0  0  0  0  0  0  0  0  0  0  0  0
   -2.4650   -1.8330    1.6340 C   0  0  0  0  0  0  0  0  0  0  0  0
   -1.0220    0.1430   -0.4720 C   0  0  0  0  0  0  0  0  0  0  0  0
    0.3040   -0.0330    0.2020 C   0  0  0  0  0  0  0  0  0  0  0  0
    1.3970    0.0450   -0.7100 N   0  0  0  0  0  0  0  0  0  0  0  0
    2.3050    1.2930   -0.4590 C   0  0  0  0  0  0  0  0  0  0  0  0
    3.3900    0.7880    0.4100 C   0  0  0  0  0  0  0  0  0  0  0  0
    3.1250    0.3860    1.6910 C   0  0  0  0  0  0  0  0  0  0  0  0
    4.1270   -0.1320    2.5300 C   0  0  0  0  0  0  0  0  0  0  0  0
    5.4270   -0.2460    2.0700 C   0  0  0  0  0  0  0  0  0  0  0  0
    6.4910   -0.8220    2.9720 C   0  0  0  0  0  0  0  0  0  0  0  0
    5.6730    0.1650    0.7820 C   0  0  0  0  0  0  0  0  0  0  0  0
    6.9510    0.0630    0.3160 F   0  0  0  0  0  0  0  0  0  0  0  0
    4.6660    0.6820   -0.0550 C   0  0  0  0  0  0  0  0  0  0  0  0
    1.9670   -0.7830   -1.6120 C   0  0  0  0  0  0  0  0  0  0  0  0
    2.8820   -0.1660   -2.3970 O   0  0  0  0  0  0  0  0  0  0  0  0
    1.8460   -2.2170   -1.9690 C   0  0  1  0  0  0  0  0  0  0  0  0
    0.9130   -2.4930   -3.1950 C   0  0  0  0  0  0  0  0  0  0  0  0
    2.3860   -2.5720   -3.3530 C   0  0  0  0  0  0  0  0  0  0  0  0
   -0.6360    3.3120   -0.7500 C   0  0  0  0  0  0  0  0  0  0  0  0
   -0.4530    4.6650   -0.5200 C   0  0  0  0  0  0  0  0  0  0  0  0
  1  2  1  0
  2  3  1  0
  3  4  2  0
  3 40  1  0
  4  5  1  0
  5  6  2  0
  6  7  1  0
  6 39  1  0
  7  8  2  0
  7 22  1  0
  8  9  1  0
  9 10  1  0
  9 11  1  0
 11 12  1  0
 11 22  2  0
 12 13  1  0
 13 14  2  0
 13 20  1  0
 14 15  1  0
 15 16  1  1
 15 17  1  0
 15 18  1  0
 18 19  1  0
 19 20  2  0
 20 21  1  0
 22 23  1  0
 23 24  1  0
 24 25  1  0
 24 34  1  0
 25 26  1  0
 26 27  2  0
 26 33  1  0
 27 28  1  0
 28 29  2  0
 29 30  1  0
 29 31  1  0
 31 32  1  0
 31 33  2  0
 34 35  2  0
 36 34  1  6
 36 37  1  0
 36 38  1  0
 37 38  1  0
 39 40  2  0
M  END
