
     RDKit          3D

 39 43  0  0  0  0  0  0  0  0999 V2000
    9.5380    0.1120   -0.8160 C   0  0  0  0  0  0  0  0  0  0  0  0
    8.2950   -0.0780   -0.0340 C   0  0  0  0  0  0  0  0  0  0  0  0
    7.2170   -0.6650   -0.6180 C   0  0  0  0  0  0  0  0  0  0  0  0
    6.0430   -0.8450    0.1130 C   0  0  0  0  0  0  0  0  0  0  0  0
    6.0140   -0.4190    1.4160 C   0  0  0  0  0  0  0  0  0  0  0  0
    4.7820   -0.6040    2.1960 C   0  0  0  0  0  0  0  0  0  0  0  0
    3.8900    0.6020    2.0430 C   0  0  0  0  0  0  0  0  0  0  0  0
    3.5020    0.8430    0.6680 N   0  0  0  0  0  0  0  0  0  0  0  0
    4.1560    1.5910   -0.2050 N   0  0  0  0  0  0  0  0  0  0  0  0
    3.5300    1.6040   -1.3810 C   0  0  0  0  0  0  0  0  0  0  0  0
    2.3830    0.8060   -1.2660 C   0  0  0  0  0  0  0  0  0  0  0  0
    2.4040    0.3560    0.0130 C   0  0  0  0  0  0  0  0  0  0  0  0
    1.3650   -0.5450    0.6000 C   0  0  0  0  0  0  0  0  0  0  0  0
    0.4530   -1.0390   -0.5040 C   0  0  0  0  0  0  0  0  0  0  0  0
    0.1630    0.0160   -1.4250 N   0  0  0  0  0  0  0  0  0  0  0  0
   -1.0240    0.6950   -1.5760 C   0  0  0  0  0  0  0  0  0  0  0  0
   -1.0580    1.5580   -2.5680 O   0  0  0  0  0  0  0  0  0  0  0  0
   -2.2330    0.5950   -0.8080 C   0  0  0  0  0  0  0  0  0  0  0  0
   -2.3880    0.0370    0.4340 C   0  0  0  0  0  0  0  0  0  0  0  0
   -3.6020   -0.0720    1.0380 C   0  0  0  0  0  0  0  0  0  0  0  0
   -4.8300    0.3840    0.4440 C   0  0  0  0  0  0  0  0  0  0  0  0
   -5.9240    0.1900    1.1900 O   0  0  0  0  0  0  0  0  0  0  0  0
   -7.0860   -0.4470    1.1040 C   0  0  0  0  0  0  0  0  0  0  0  0
   -7.1840   -1.6900    1.8310 C   0  0  0  0  0  0  0  0  0  0  0  0
   -8.2710   -2.4710    1.8720 C   0  0  0  0  0  0  0  0  0  0  0  0
   -9.3950   -2.0760    1.1720 C   0  0  0  0  0  0  0  0  0  0  0  0
   -9.3560   -0.9060    0.4690 C   0  0  0  0  0  0  0  0  0  0  0  0
  -10.5980   -0.5240   -0.2710 C   0  0  0  0  0  0  0  0  0  0  0  0
   -8.2130   -0.0840    0.4280 C   0  0  0  0  0  0  0  0  0  0  0  0
   -8.3930    1.2190   -0.3010 C   0  0  0  0  0  0  0  0  0  0  0  0
   -4.6580    0.9350   -0.7800 C   0  0  0  0  0  0  0  0  0  0  0  0
   -5.7070    1.4100   -1.4730 F   0  0  0  0  0  0  0  0  0  0  0  0
   -3.4150    1.0460   -1.4010 C   0  0  0  0  0  0  0  0  0  0  0  0
    1.3180    0.4690   -2.2610 C   0  0  0  0  0  0  0  0  0  0  0  0
    7.1020    0.1820    2.0290 C   0  0  0  0  0  0  0  0  0  0  0  0
    8.2480    0.3480    1.2830 C   0  0  0  0  0  0  0  0  0  0  0  0
    9.4760    0.9820    1.8460 C   0  0  1  0  0  0  0  0  0  0  0  0
    9.2020    2.2890    2.2670 F   0  0  0  0  0  0  0  0  0  0  0  0
    9.8890    0.2920    2.9700 F   0  0  0  0  0  0  0  0  0  0  0  0
  1  2  1  0
  2  3  2  0
  2 36  1  0
  3  4  1  0
  4  5  2  0
  5  6  1  0
  5 35  1  0
  6  7  1  0
  7  8  1  0
  8  9  1  0
  8 12  1  0
  9 10  2  0
 10 11  1  0
 11 12  2  0
 11 34  1  0
 12 13  1  0
 13 14  1  0
 14 15  1  0
 15 16  1  0
 15 34  1  0
 16 17  2  0
 16 18  1  0
 18 19  2  0
 18 33  1  0
 19 20  1  0
 20 21  2  0
 21 22  1  0
 21 31  1  0
 22 23  1  0
 23 24  2  0
 23 29  1  0
 24 25  1  0
 25 26  2  0
 26 27  1  0
 27 28  1  0
 27 29  2  0
 29 30  1  0
 31 32  1  0
 31 33  2  0
 35 36  2  0
 36 37  1  0
 37 38  1  1
 37 39  1  0
M  END
