
     RDKit          3D

 40 44  0  0  0  0  0  0  0  0999 V2000
    7.1010    0.6660   -3.7720 C   0  0  0  0  0  0  0  0  0  0  0  0
    5.9450    1.5010   -3.2770 C   0  0  0  0  0  0  0  0  0  0  0  0
    5.0070    0.6810   -2.4440 C   0  0  0  0  0  0  0  0  0  0  0  0
    4.9990    0.7850   -1.0730 C   0  0  0  0  0  0  0  0  0  0  0  0
    4.1480    0.0340   -0.2500 C   0  0  0  0  0  0  0  0  0  0  0  0
    4.2130    0.2130    1.2220 C   0  0  0  0  0  0  0  0  0  0  0  0
    3.2540    1.2280    1.5980 N   0  0  0  0  0  0  0  0  0  0  0  0
    3.6130    2.5400    1.4770 C   0  0  0  0  0  0  0  0  0  0  0  0
    2.7370    3.5540    1.7670 C   0  0  0  0  0  0  0  0  0  0  0  0
    1.4760    3.2320    2.1860 C   0  0  0  0  0  0  0  0  0  0  0  0
    1.0610    1.9270    2.3270 C   0  0  0  0  0  0  0  0  0  0  0  0
   -0.2030    1.5780    2.7630 C   0  0  0  0  0  0  0  0  0  0  0  0
   -1.0160    2.5230    3.0330 O   0  0  0  0  0  0  0  0  0  0  0  0
   -0.6110    0.2820    2.9180 C   0  0  0  0  0  0  0  0  0  0  0  0
   -1.9490   -0.0820    3.3460 C   0  0  0  0  0  0  0  0  0  0  0  0
   -3.0180   -0.1360    2.2780 C   0  0  0  0  0  0  0  0  0  0  0  0
   -2.7390   -1.0810    1.2590 N   0  0  0  0  0  0  0  0  0  0  0  0
   -3.2520   -2.4530    1.5440 C   0  0  0  0  0  0  0  0  0  0  0  0
   -4.6980   -2.5770    1.1490 C   0  0  0  0  0  0  0  0  0  0  0  0
   -5.6560   -2.8840    2.0050 C   0  0  0  0  0  0  0  0  0  0  0  0
   -5.4710   -3.1230    3.3150 F   0  0  0  0  0  0  0  0  0  0  0  0
   -6.9390   -2.9260    1.3030 C   0  0  0  0  0  0  0  0  0  0  0  0
   -6.6300   -2.6020   -0.0830 C   0  0  0  0  0  0  0  0  0  0  0  0
   -5.3000   -2.4010   -0.1460 C   0  0  0  0  0  0  0  0  0  0  0  0
   -4.6710   -2.0740   -1.3150 F   0  0  0  0  0  0  0  0  0  0  0  0
   -2.0970   -0.8890    0.0480 C   0  0  0  0  0  0  0  0  0  0  0  0
   -1.8700   -2.0160   -0.6060 O   0  0  0  0  0  0  0  0  0  0  0  0
   -1.6350    0.2280   -0.6430 N   0  0  0  0  0  0  0  0  0  0  0  0
   -1.6980    1.6190   -0.3320 C   0  0  0  0  0  0  0  0  0  0  0  0
   -2.6380    2.2880   -1.3580 C   0  0  0  0  0  0  0  0  0  0  0  0
   -3.0240    1.2720   -2.4210 C   0  0  0  0  0  0  0  0  0  0  0  0
   -1.8030    0.6100   -3.0050 C   0  0  0  0  0  0  0  0  0  0  0  0
   -0.9310   -0.0020   -1.9620 C   0  0  0  0  0  0  0  0  0  0  0  0
    0.3210   -0.7140    2.6120 C   0  0  0  0  0  0  0  0  0  0  0  0
    1.5940   -0.4130    2.1730 C   0  0  0  0  0  0  0  0  0  0  0  0
    2.0340    0.8680    2.0050 C   0  0  0  0  0  0  0  0  0  0  0  0
    3.2980   -0.8330   -0.8720 C   0  0  0  0  0  0  0  0  0  0  0  0
    3.3010   -0.9430   -2.2700 C   0  0  0  0  0  0  0  0  0  0  0  0
    4.1440   -0.1960   -3.0450 C   0  0  0  0  0  0  0  0  0  0  0  0
    4.1410   -0.3090   -4.4120 F   0  0  0  0  0  0  0  0  0  0  0  0
  1  2  1  0
  2  3  1  0
  3  4  2  0
  3 39  1  0
  4  5  1  0
  5  6  1  0
  5 37  2  0
  6  7  1  0
  7  8  1  0
  7 36  1  0
  8  9  2  0
  9 10  1  0
 10 11  2  0
 11 12  1  0
 11 36  1  0
 12 13  2  0
 12 14  1  0
 14 15  1  0
 14 34  2  0
 15 16  1  0
 16 17  1  0
 17 18  1  0
 17 26  1  0
 18 19  1  0
 19 20  2  0
 19 24  1  0
 20 21  1  0
 20 22  1  0
 22 23  1  0
 23 24  2  0
 24 25  1  0
 26 27  2  0
 26 28  1  0
 28 29  1  0
 28 33  1  0
 29 30  1  0
 30 31  1  0
 31 32  1  0
 32 33  1  0
 34 35  1  0
 35 36  2  0
 37 38  1  0
 38 39  2  0
 39 40  1  0
M  END
