
     RDKit          3D

 40 44  0  0  0  0  0  0  0  0999 V2000
    8.6760    1.1830    2.9630 C   0  0  0  0  0  0  0  0  0  0  0  0
    7.2440    1.0700    3.4770 C   0  0  2  0  0  0  0  0  0  0  0  0
    7.3090    0.6020    4.9330 C   0  0  0  0  0  0  0  0  0  0  0  0
    6.5220    0.2520    2.7440 O   0  0  0  0  0  0  0  0  0  0  0  0
    5.5170   -0.0390    1.9540 C   0  0  0  0  0  0  0  0  0  0  0  0
    4.6560    0.9580    1.5160 C   0  0  0  0  0  0  0  0  0  0  0  0
    3.6000    0.6730    0.6860 C   0  0  0  0  0  0  0  0  0  0  0  0
    3.3910   -0.6590    0.2780 C   0  0  0  0  0  0  0  0  0  0  0  0
    4.2230   -1.6510    0.6950 C   0  0  0  0  0  0  0  0  0  0  0  0
    5.2720   -1.3530    1.5210 C   0  0  0  0  0  0  0  0  0  0  0  0
    4.0240   -3.0020    0.1530 C   0  0  0  0  0  0  0  0  0  0  0  0
    3.0920   -3.2780   -0.7250 C   0  0  0  0  0  0  0  0  0  0  0  0
    2.2060   -2.2350   -1.2120 N   0  0  0  0  0  0  0  0  0  0  0  0
    1.3600   -2.4970   -2.3330 C   0  0  1  0  0  0  0  0  0  0  0  0
    0.6020   -1.3410   -2.7840 C   0  0  0  0  0  0  0  0  0  0  0  0
   -0.7920   -1.4410   -2.7060 C   0  0  0  0  0  0  0  0  0  0  0  0
   -1.6020   -0.4020   -3.1480 C   0  0  0  0  0  0  0  0  0  0  0  0
   -1.0610    0.7410   -3.6650 C   0  0  0  0  0  0  0  0  0  0  0  0
   -1.8270    1.8220   -4.1230 O   0  0  0  0  0  0  0  0  0  0  0  0
   -3.2200    1.7580   -4.0620 C   0  0  0  0  0  0  0  0  0  0  0  0
   -3.6930    1.5990   -2.6550 C   0  0  0  0  0  0  0  0  0  0  0  0
   -2.9460    1.9070   -1.5780 N   0  0  0  0  0  0  0  0  0  0  0  0
   -3.6670    1.6390   -0.4770 C   0  0  0  0  0  0  0  0  0  0  0  0
   -3.4150    1.7530    0.8730 C   0  0  0  0  0  0  0  0  0  0  0  0
   -4.3790    1.3810    1.8200 C   0  0  0  0  0  0  0  0  0  0  0  0
   -5.6110    0.8900    1.4320 C   0  0  0  0  0  0  0  0  0  0  0  0
   -6.6540    0.4790    2.4190 C   0  0  2  0  0  0  0  0  0  0  0  0
   -7.0270    1.7050    3.2300 C   0  0  0  0  0  0  0  0  0  0  0  0
   -6.2040   -0.6380    3.3080 C   0  0  0  0  0  0  0  0  0  0  0  0
   -5.8420    0.7850    0.0760 C   0  0  0  0  0  0  0  0  0  0  0  0
   -4.8880    1.1530   -0.8770 C   0  0  0  0  0  0  0  0  0  0  0  0
   -4.8730    1.1400   -2.2220 N   0  0  0  0  0  0  0  0  0  0  0  0
   -5.9460    0.7000   -3.0880 C   0  0  0  0  0  0  0  0  0  0  0  0
    0.3350    0.8240   -3.7380 C   0  0  0  0  0  0  0  0  0  0  0  0
    1.1610   -0.1910   -3.3090 C   0  0  0  0  0  0  0  0  0  0  0  0
    2.1010   -3.0580   -3.5430 C   0  0  1  0  0  0  0  0  0  0  0  0
    1.0970   -3.2270   -4.5190 F   0  0  0  0  0  0  0  0  0  0  0  0
    2.9870   -2.1510   -4.0570 F   0  0  0  0  0  0  0  0  0  0  0  0
    2.6080   -4.3070   -3.3430 F   0  0  0  0  0  0  0  0  0  0  0  0
    2.1850   -0.9820   -0.5370 C   0  0  0  0  0  0  0  0  0  0  0  0
  2  1  1  6
  2  3  1  0
  2  4  1  0
  4  5  1  0
  5  6  2  0
  5 10  1  0
  6  7  1  0
  7  8  2  0
  8  9  1  0
  8 40  1  0
  9 10  2  0
  9 11  1  0
 11 12  2  0
 12 13  1  0
 14 13  1  1
 13 40  1  0
 14 15  1  0
 14 36  1  0
 15 16  2  0
 15 35  1  0
 16 17  1  0
 17 18  2  0
 18 19  1  0
 18 34  1  0
 19 20  1  0
 20 21  1  0
 21 22  2  0
 21 32  1  0
 22 23  1  0
 23 24  2  0
 23 31  1  0
 24 25  1  0
 25 26  2  0
 26 27  1  0
 26 30  1  0
 27 28  1  1
 27 29  1  0
 30 31  2  0
 31 32  1  0
 32 33  1  0
 34 35  2  0
 36 37  1  6
 36 38  1  0
 36 39  1  0
M  END
