
     RDKit          3D

 41 45  0  0  0  0  0  0  0  0999 V2000
   -7.7270   -1.3490   -0.6240 C   0  0  0  0  0  0  0  0  0  0  0  0
   -8.1220   -0.7070    0.6710 C   0  0  0  0  0  0  0  0  0  0  0  0
   -7.2160   -0.1410    1.4030 C   0  0  0  0  0  0  0  0  0  0  0  0
   -5.8040   -0.0020    1.1920 C   0  0  0  0  0  0  0  0  0  0  0  0
   -5.1010    0.6240    2.1010 O   0  0  0  0  0  0  0  0  0  0  0  0
   -4.9800   -0.4320    0.1380 N   0  0  0  0  0  0  0  0  0  0  0  0
   -3.5530   -0.2250    0.0710 C   0  0  0  0  0  0  0  0  0  0  0  0
   -2.7310   -0.0360    1.1200 C   0  0  0  0  0  0  0  0  0  0  0  0
   -1.3540    0.1930    0.9360 C   0  0  0  0  0  0  0  0  0  0  0  0
   -0.7950    0.2340   -0.3200 C   0  0  0  0  0  0  0  0  0  0  0  0
   -1.6730    0.0320   -1.3800 C   0  0  0  0  0  0  0  0  0  0  0  0
   -3.0210   -0.1930   -1.2180 C   0  0  0  0  0  0  0  0  0  0  0  0
   -1.2000    0.0260   -2.6930 C   0  0  0  0  0  0  0  0  0  0  0  0
   -2.0420   -0.1710   -3.7640 C   0  0  0  0  0  0  0  0  0  0  0  0
   -1.4620   -0.1590   -5.0400 C   0  0  0  0  0  0  0  0  0  0  0  0
   -0.1190    0.0420   -5.2100 C   0  0  0  0  0  0  0  0  0  0  0  0
    0.6910    0.2360   -4.1110 C   0  0  0  0  0  0  0  0  0  0  0  0
    0.1410    0.2280   -2.8420 C   0  0  0  0  0  0  0  0  0  0  0  0
    1.0050    0.4310   -1.7700 C   0  0  0  0  0  0  0  0  0  0  0  0
    2.2120    0.6100   -2.0680 O   0  0  0  0  0  0  0  0  0  0  0  0
    0.5650    0.4390   -0.5010 N   0  0  0  0  0  0  0  0  0  0  0  0
    1.4080    0.5720    0.6050 C   0  0  0  0  0  0  0  0  0  0  0  0
    0.7240    0.8430    1.7270 O   0  0  0  0  0  0  0  0  0  0  0  0
    2.8070    0.4880    0.8680 C   0  0  0  0  0  0  0  0  0  0  0  0
    3.8420    0.1990   -0.0860 C   0  0  0  0  0  0  0  0  0  0  0  0
    5.1950    0.1260    0.7000 C   0  0  0  0  0  0  0  0  0  0  0  0
    5.2120    0.3030    1.9250 O   0  0  0  0  0  0  0  0  0  0  0  0
    6.3800   -0.1420   -0.0060 N   0  0  0  0  0  0  0  0  0  0  0  0
    7.6410   -0.2160    0.6940 C   0  0  0  0  0  0  0  0  0  0  0  0
    8.5500    0.6520    0.3080 C   0  0  0  0  0  0  0  0  0  0  0  0
    9.9070    0.8770    0.7680 C   0  0  0  0  0  0  0  0  0  0  0  0
   10.7870    1.5070   -0.1440 O   0  0  0  0  0  0  0  0  0  0  0  0
   10.5110    0.6020    1.9100 C   0  0  0  0  0  0  0  0  0  0  0  0
    9.7390   -0.2000    3.3330 S   0  0  0  0  0  0  0  0  0  0  0  0
    8.5020   -1.3480    2.7930 C   0  0  0  0  0  0  0  0  0  0  0  0
    7.7420   -1.2280    1.7240 C   0  0  0  0  0  0  0  0  0  0  0  0
    6.8750   -2.2870    1.5720 F   0  0  0  0  0  0  0  0  0  0  0  0
   -7.7120    0.4710    2.6700 C   0  0  0  0  0  0  0  0  0  0  0  0
   -8.9760    0.4440    3.0300 C   0  0  0  0  0  0  0  0  0  0  0  0
   -9.9870   -0.2070    2.1780 C   0  0  0  0  0  0  0  0  0  0  0  0
   -9.4900   -0.7570    1.0290 O   0  0  0  0  0  0  0  0  0  0  0  0
  1  2  1  0
  2  3  2  0
  2 41  1  0
  3  4  1  0
  3 38  1  0
  4  5  2  0
  4  6  1  0
  6  7  1  0
  7  8  2  0
  7 12  1  0
  8  9  1  0
  9 10  2  0
 10 11  1  0
 10 21  1  0
 11 12  2  0
 11 13  1  0
 13 14  2  0
 13 18  1  0
 14 15  1  0
 15 16  2  0
 16 17  1  0
 17 18  2  0
 18 19  1  0
 19 20  2  0
 19 21  1  0
 21 22  1  0
 22 23  2  0
 22 24  1  0
 24 25  1  0
 25 26  1  0
 26 27  2  0
 26 28  1  0
 28 29  1  0
 29 30  2  0
 29 36  1  0
 30 31  1  0
 31 32  1  0
 31 33  2  0
 33 34  1  0
 34 35  1  0
 35 36  2  0
 36 37  1  0
 38 39  2  0
 39 40  1  0
 40 41  1  0
M  END
