
     RDKit          3D

 41 45  0  0  0  0  0  0  0  0999 V2000
    9.3190    2.1390   -3.6760 C   0  0  0  0  0  0  0  0  0  0  0  0
    9.2440    1.1970   -2.5480 C   0  0  0  0  0  0  0  0  0  0  0  0
   10.3290    0.3870   -2.2870 C   0  0  0  0  0  0  0  0  0  0  0  0
   10.3360   -0.5120   -1.2490 C   0  0  0  0  0  0  0  0  0  0  0  0
   11.3960   -1.3130   -0.9750 F   0  0  0  0  0  0  0  0  0  0  0  0
    9.2260   -0.6160   -0.4360 C   0  0  0  0  0  0  0  0  0  0  0  0
    8.1180    0.1710   -0.6540 C   0  0  0  0  0  0  0  0  0  0  0  0
    6.9240    0.0940    0.2240 C   0  0  1  0  0  0  0  0  0  0  0  0
    6.1780   -1.2070   -0.1210 C   0  0  0  0  0  0  0  0  0  0  0  0
    4.9900   -1.1570    0.7260 N   0  0  0  0  0  0  0  0  0  0  0  0
    3.7050   -1.3710    0.2120 C   0  0  0  0  0  0  0  0  0  0  0  0
    3.5190   -1.6660   -1.0140 O   0  0  0  0  0  0  0  0  0  0  0  0
    2.5450   -1.2460    1.1110 C   0  0  0  0  0  0  0  0  0  0  0  0
    2.7310   -0.9650    2.3040 O   0  0  0  0  0  0  0  0  0  0  0  0
    1.2640   -1.4460    0.5900 N   0  0  0  0  0  0  0  0  0  0  0  0
    0.0930   -1.3090    1.3850 C   0  0  0  0  0  0  0  0  0  0  0  0
    0.0150   -0.6020    2.5600 C   0  0  0  0  0  0  0  0  0  0  0  0
   -1.1520   -0.5080    3.2700 C   0  0  0  0  0  0  0  0  0  0  0  0
   -2.3140   -1.1350    2.8150 C   0  0  0  0  0  0  0  0  0  0  0  0
   -3.4060   -0.9960    3.5600 O   0  0  0  0  0  0  0  0  0  0  0  0
   -4.7000   -1.4120    3.4270 C   0  0  0  0  0  0  0  0  0  0  0  0
   -5.4780   -0.9820    2.4440 O   0  0  0  0  0  0  0  0  0  0  0  0
   -6.0400   -0.6970    1.3280 C   0  0  0  0  0  0  0  0  0  0  0  0
   -5.6220   -1.0480    0.0390 C   0  0  0  0  0  0  0  0  0  0  0  0
   -6.3060   -0.6840   -1.0880 C   0  0  0  0  0  0  0  0  0  0  0  0
   -7.4740    0.0690   -0.9940 C   0  0  0  0  0  0  0  0  0  0  0  0
   -7.9270    0.4380    0.2400 C   0  0  0  0  0  0  0  0  0  0  0  0
   -7.2410    0.0710    1.3390 C   0  0  0  0  0  0  0  0  0  0  0  0
   -9.4210    1.3920    0.3560 S   0  0  0  0  0  0  0  0  0  0  0  0
   -9.6560    2.2080   -1.2530 C   0  0  2  0  0  0  0  0  0  0  0  0
   -8.6220    3.3210   -1.4070 C   0  0  0  0  0  0  0  0  0  0  0  0
  -11.0540    2.7360   -1.4040 C   0  0  0  0  0  0  0  0  0  0  0  0
   -9.3330    1.1810   -2.2770 C   0  0  0  0  0  0  0  0  0  0  0  0
  -10.1370    1.0170   -3.2050 O   0  0  0  0  0  0  0  0  0  0  0  0
   -8.1490    0.4270   -2.1880 N   0  0  0  0  0  0  0  0  0  0  0  0
   -2.2510   -1.8440    1.6480 C   0  0  0  0  0  0  0  0  0  0  0  0
   -1.0790   -1.9290    0.9510 C   0  0  0  0  0  0  0  0  0  0  0  0
    5.2130   -0.8820    2.1180 C   0  0  0  0  0  0  0  0  0  0  0  0
    6.7280   -0.8550    2.3250 C   0  0  0  0  0  0  0  0  0  0  0  0
    7.3590    0.0770    1.5360 O   0  0  0  0  0  0  0  0  0  0  0  0
    8.1610    1.0540   -1.7050 C   0  0  0  0  0  0  0  0  0  0  0  0
  1  2  1  0
  2  3  2  0
  2 41  1  0
  3  4  1  0
  4  5  1  0
  4  6  2  0
  6  7  1  0
  8  7  1  6
  7 41  2  0
  8  9  1  0
  8 40  1  0
  9 10  1  0
 10 11  1  0
 10 38  1  0
 11 12  2  0
 11 13  1  0
 13 14  2  0
 13 15  1  0
 15 16  1  0
 16 17  2  0
 16 37  1  0
 17 18  1  0
 18 19  2  0
 19 20  1  0
 19 36  1  0
 20 21  1  0
 21 22  1  0
 22 23  1  0
 23 24  2  0
 23 28  1  0
 24 25  1  0
 25 26  2  0
 26 27  1  0
 26 35  1  0
 27 28  2  0
 27 29  1  0
 29 30  1  0
 30 31  1  1
 30 32  1  0
 30 33  1  0
 33 34  2  0
 33 35  1  0
 36 37  2  0
 38 39  1  0
 39 40  1  0
M  END
