
     RDKit          3D

 28 31  0  0  0  0  0  0  0  0999 V2000
    2.3880    4.0870    3.6330 C   0  0  0  0  0  0  0  0  0  0  0  0
    1.5100    3.6840    2.6440 O   0  0  0  0  0  0  0  0  0  0  0  0
    1.7320    2.5970    1.7900 C   0  0  0  0  0  0  0  0  0  0  0  0
    2.8710    1.8300    1.8590 C   0  0  0  0  0  0  0  0  0  0  0  0
    3.0150    0.7710    0.9820 C   0  0  0  0  0  0  0  0  0  0  0  0
    2.0910    0.4570    0.0680 C   0  0  0  0  0  0  0  0  0  0  0  0
    2.2230   -0.5870   -0.8040 O   0  0  0  0  0  0  0  0  0  0  0  0
    3.2830   -1.4770   -0.9160 C   0  0  0  0  0  0  0  0  0  0  0  0
    4.5830   -0.9040   -1.2750 C   0  0  0  0  0  0  0  0  0  0  0  0
    4.8770    0.4160   -1.5660 C   0  0  0  0  0  0  0  0  0  0  0  0
    6.2040    0.5310   -1.8700 N   0  0  0  0  0  0  0  0  0  0  0  0
    6.7010   -0.6640   -1.7670 N   0  0  0  0  0  0  0  0  0  0  0  0
    5.7750   -1.5870   -1.4090 C   0  0  0  0  0  0  0  0  0  0  0  0
    6.0230   -3.0200   -1.2140 C   0  0  0  0  0  0  0  0  0  0  0  0
    0.8770    1.2120   -0.0560 C   0  0  0  0  0  0  0  0  0  0  0  0
   -0.0050    0.9430   -0.8790 O   0  0  0  0  0  0  0  0  0  0  0  0
   -0.9690    0.6490   -1.7790 C   0  0  0  0  0  0  0  0  0  0  0  0
   -2.2800    0.3320   -1.1530 C   0  0  0  0  0  0  0  0  0  0  0  0
   -2.7350    1.1630   -0.1430 C   0  0  0  0  0  0  0  0  0  0  0  0
   -3.9240    0.9670    0.5310 C   0  0  0  0  0  0  0  0  0  0  0  0
   -4.7200   -0.1530    0.1600 C   0  0  0  0  0  0  0  0  0  0  0  0
   -4.2770   -0.9660   -0.8300 C   0  0  0  0  0  0  0  0  0  0  0  0
   -3.0620   -0.7400   -1.4950 C   0  0  0  0  0  0  0  0  0  0  0  0
   -5.1180   -2.1390   -1.2370 C   0  0  0  0  0  0  0  0  0  0  0  0
   -5.8640   -2.6140   -0.1070 N   0  0  0  0  0  0  0  0  0  0  0  0
   -6.7200   -1.5840    0.4550 C   0  0  0  0  0  0  0  0  0  0  0  0
   -5.9770   -0.3700    0.9190 C   0  0  0  0  0  0  0  0  0  0  0  0
    0.7870    2.2700    0.8490 C   0  0  0  0  0  0  0  0  0  0  0  0
  1  2  1  0
  2  3  1  0
  3  4  2  0
  3 28  1  0
  4  5  1  0
  5  6  2  0
  6  7  1  0
  6 15  1  0
  7  8  1  0
  8  9  1  0
  9 10  2  0
  9 13  1  0
 10 11  1  0
 11 12  1  0
 12 13  2  0
 13 14  1  0
 15 16  1  0
 15 28  2  0
 16 17  1  0
 17 18  1  0
 18 19  2  0
 18 23  1  0
 19 20  1  0
 20 21  2  0
 21 22  1  0
 21 27  1  0
 22 23  2  0
 22 24  1  0
 24 25  1  0
 25 26  1  0
 26 27  1  0
M  CHG  1  25   1
M  END
