
     RDKit          3D

 29 31  0  0  0  0  0  0  0  0999 V2000
   -3.2580    0.0280   -2.4310 C   0  0  0  0  0  0  0  0  0  0  0  0
   -3.3380   -1.0320   -1.3540 C   0  0  0  0  0  0  0  0  0  0  0  0
   -2.8990   -0.4480   -0.0810 C   0  0  0  0  0  0  0  0  0  0  0  0
   -1.5980   -0.4640    0.3320 N   0  0  0  0  0  0  0  0  0  0  0  0
   -1.5190    0.1380    1.5190 C   0  0  0  0  0  0  0  0  0  0  0  0
   -0.3470    0.3880    2.3970 C   0  0  0  0  0  0  0  0  0  0  0  0
    0.8590    0.0070    1.8250 O   0  0  0  0  0  0  0  0  0  0  0  0
    1.3930    0.4990    0.6610 C   0  0  0  0  0  0  0  0  0  0  0  0
    0.7670    1.3570    0.0450 O   0  0  0  0  0  0  0  0  0  0  0  0
    2.7250    0.0020    0.1330 C   0  0  0  0  0  0  0  0  0  0  0  0
    3.3020   -0.8920    0.8640 C   0  0  0  0  0  0  0  0  0  0  0  0
    4.5180   -1.6430    0.7710 C   0  0  0  0  0  0  0  0  0  0  0  0
    4.9230   -2.5010    1.7170 C   0  0  0  0  0  0  0  0  0  0  0  0
    6.1980   -3.1420    1.3670 C   0  0  0  0  0  0  0  0  0  0  0  0
    6.5020   -2.5920    0.0540 C   0  0  0  0  0  0  0  0  0  0  0  0
    5.5240   -1.7280   -0.2670 C   0  0  0  0  0  0  0  0  0  0  0  0
    3.1930    0.7470   -0.9630 N   0  0  0  0  0  0  0  0  0  0  0  0
    2.4080    1.2990   -1.9260 C   0  0  0  0  0  0  0  0  0  0  0  0
    3.1430    2.0760   -2.7920 C   0  0  0  0  0  0  0  0  0  0  0  0
    4.4290    2.0130   -2.3650 C   0  0  0  0  0  0  0  0  0  0  0  0
    5.5700    2.6870   -2.9830 C   0  0  0  0  0  0  0  0  0  0  0  0
    6.7210    2.5630   -2.5100 O   0  0  0  0  0  0  0  0  0  0  0  0
    4.4270    1.2070   -1.2630 C   0  0  0  0  0  0  0  0  0  0  0  0
   -2.8050    0.5250    1.8270 C   0  0  0  0  0  0  0  0  0  0  0  0
   -3.6540    0.1670    0.8470 N   0  0  0  0  0  0  0  0  0  0  0  0
   -5.1070    0.3970    0.7980 C   0  0  2  0  0  0  0  0  0  0  0  0
   -5.4830    1.3410   -0.3100 C   0  0  0  0  0  0  0  0  0  0  0  0
   -5.4940    1.0940    2.1090 C   0  0  0  0  0  0  0  0  0  0  0  0
   -5.8590   -0.8990    0.7620 C   0  0  0  0  0  0  0  0  0  0  0  0
  1  2  1  0
  2  3  1  0
  3  4  1  0
  3 25  2  0
  4  5  1  0
  5  6  1  0
  5 24  2  0
  6  7  1  0
  7  8  1  0
  8  9  2  0
  8 10  1  0
 10 11  2  3
 10 17  1  0
 11 12  1  0
 12 13  2  0
 12 16  1  0
 13 14  1  0
 14 15  1  0
 15 16  2  0
 17 18  1  0
 17 23  1  0
 18 19  2  0
 19 20  1  0
 20 21  1  0
 20 23  2  0
 21 22  2  0
 24 25  1  0
 25 26  1  0
 26 27  1  6
 26 28  1  0
 26 29  1  0
M  CHG  1  25   1
M  END
