
     RDKit          3D

 31 34  0  0  0  0  0  0  0  0999 V2000
    8.4750   -1.9900    1.5210 C   0  0  0  0  0  0  0  0  0  0  0  0
    7.7090   -0.9210    0.8130 C   0  0  0  0  0  0  0  0  0  0  0  0
    8.1500    0.3800    0.7440 C   0  0  0  0  0  0  0  0  0  0  0  0
    7.3720    1.3530    0.1640 C   0  0  0  0  0  0  0  0  0  0  0  0
    7.7840    2.7640    0.2050 C   0  0  0  0  0  0  0  0  0  0  0  0
    6.1080    0.9900   -0.3680 C   0  0  0  0  0  0  0  0  0  0  0  0
    5.3400    1.9790   -1.1170 C   0  0  0  0  0  0  0  0  0  0  0  0
    5.6840   -0.2870   -0.2900 C   0  0  0  0  0  0  0  0  0  0  0  0
    4.2630   -0.6720   -0.5060 C   0  0  0  0  0  0  0  0  0  0  0  0
    3.5710   -1.5840   -1.0910 N   0  0  0  0  0  0  0  0  0  0  0  0
    2.2970   -1.5520   -0.5980 N   0  0  0  0  0  0  0  0  0  0  0  0
    2.1700   -0.6120    0.3080 C   0  0  0  0  0  0  0  0  0  0  0  0
    1.0420   -0.1690    1.2090 C   0  0  0  0  0  0  0  0  0  0  0  0
   -0.1070   -0.1060    0.3360 N   0  0  0  0  0  0  0  0  0  0  0  0
   -0.7540   -1.2930   -0.0920 C   0  0  0  0  0  0  0  0  0  0  0  0
   -0.3340   -2.4060    0.3530 O   0  0  0  0  0  0  0  0  0  0  0  0
   -1.9150   -1.2780   -1.0600 C   0  0  0  0  0  0  0  0  0  0  0  0
   -2.2460    0.0330   -1.3680 N   0  0  0  0  0  0  0  0  0  0  0  0
   -3.5230    0.1660   -2.0710 C   0  0  0  0  0  0  0  0  0  0  0  0
   -4.5320   -0.2330   -1.0130 C   0  0  0  0  0  0  0  0  0  0  0  0
   -4.6330   -1.4800   -0.4880 N   0  0  0  0  0  0  0  0  0  0  0  0
   -5.6870   -1.5490    0.2890 N   0  0  0  0  0  0  0  0  0  0  0  0
   -6.1780   -2.7490    0.9590 C   0  0  0  0  0  0  0  0  0  0  0  0
   -6.2970   -0.3420    0.2850 C   0  0  0  0  0  0  0  0  0  0  0  0
   -5.5580    0.4670   -0.5390 C   0  0  0  0  0  0  0  0  0  0  0  0
   -5.9810    1.8840   -0.7330 C   0  0  0  0  0  0  0  0  0  0  0  0
   -7.4560    2.0710   -0.7310 C   0  0  0  0  0  0  0  0  0  0  0  0
   -8.2390    1.1310    0.1300 C   0  0  0  0  0  0  0  0  0  0  0  0
   -7.4060    0.2760    1.0150 C   0  0  0  0  0  0  0  0  0  0  0  0
    3.3900   -0.0250    0.3920 N   0  0  0  0  0  0  0  0  0  0  0  0
    6.4610   -1.2670    0.2890 C   0  0  0  0  0  0  0  0  0  0  0  0
  1  2  1  0
  2  3  2  0
  2 31  1  0
  3  4  1  0
  4  5  1  0
  4  6  2  0
  6  7  1  0
  6  8  1  0
  8  9  1  0
  8 31  2  0
  9 10  2  0
  9 30  1  0
 10 11  1  0
 11 12  1  0
 12 13  1  0
 12 30  2  0
 13 14  1  0
 14 15  1  0
 15 16  2  0
 15 17  1  0
 17 18  1  0
 18 19  1  0
 19 20  1  0
 20 21  2  0
 20 25  1  0
 21 22  1  0
 22 23  1  0
 22 24  1  0
 24 25  2  0
 24 29  1  0
 25 26  1  0
 26 27  1  0
 27 28  1  0
 28 29  1  0
M  END
