
     RDKit          3D

 29 32  0  0  0  0  0  0  0  0999 V2000
   -7.3560    1.6890    1.7710 C   0  0  0  0  0  0  0  0  0  0  0  0
   -6.8140    0.9470    0.6930 O   0  0  0  0  0  0  0  0  0  0  0  0
   -5.4630    0.6540    0.6590 C   0  0  0  0  0  0  0  0  0  0  0  0
   -4.6320    1.0930    1.6930 C   0  0  0  0  0  0  0  0  0  0  0  0
   -3.2650    0.7890    1.6480 C   0  0  0  0  0  0  0  0  0  0  0  0
   -2.7490    0.0700    0.5990 C   0  0  0  0  0  0  0  0  0  0  0  0
   -3.5740   -0.3570   -0.4150 C   0  0  0  0  0  0  0  0  0  0  0  0
   -4.9450   -0.0680   -0.3950 C   0  0  0  0  0  0  0  0  0  0  0  0
   -5.7650   -0.5040   -1.4220 O   0  0  0  0  0  0  0  0  0  0  0  0
   -6.4160   -1.7760   -1.3640 C   0  0  0  0  0  0  0  0  0  0  0  0
   -3.1030   -1.0910   -1.5040 O   0  0  0  0  0  0  0  0  0  0  0  0
   -1.6910   -1.3420   -1.5690 C   0  0  0  0  0  0  0  0  0  0  0  0
   -1.2520   -1.6180   -0.1550 C   0  0  0  0  0  0  0  0  0  0  0  0
   -1.2860   -0.2510    0.5560 C   0  0  1  0  0  0  0  0  0  0  0  0
   -0.5890    0.6830   -0.3060 N   0  0  0  0  0  0  0  0  0  0  0  0
    0.8220    0.7110   -0.4730 C   0  0  0  0  0  0  0  0  0  0  0  0
    1.4050    1.5290   -1.4450 C   0  0  0  0  0  0  0  0  0  0  0  0
    2.7670    1.5200   -1.5500 C   0  0  0  0  0  0  0  0  0  0  0  0
    3.5920    0.7440   -0.7430 C   0  0  0  0  0  0  0  0  0  0  0  0
    3.0420   -0.0680    0.2210 C   0  0  0  0  0  0  0  0  0  0  0  0
    3.7880   -0.9190    1.1190 C   0  0  0  0  0  0  0  0  0  0  0  0
    5.0070   -1.1120    1.2330 N   0  0  0  0  0  0  0  0  0  0  0  0
    6.0790   -0.5970    0.5610 C   0  0  0  0  0  0  0  0  0  0  0  0
    6.7390    0.5680    0.9890 C   0  0  0  0  0  0  0  0  0  0  0  0
    7.8170    0.9860    0.2590 C   0  0  0  0  0  0  0  0  0  0  0  0
    8.2420    0.3210   -0.8280 N   0  0  0  0  0  0  0  0  0  0  0  0
    7.6440   -0.7850   -1.2650 C   0  0  0  0  0  0  0  0  0  0  0  0
    6.5520   -1.2670   -0.5800 C   0  0  0  0  0  0  0  0  0  0  0  0
    1.6430   -0.0520    0.3210 C   0  0  0  0  0  0  0  0  0  0  0  0
  1  2  1  0
  2  3  1  0
  3  4  2  0
  3  8  1  0
  4  5  1  0
  5  6  2  0
  6  7  1  0
  6 14  1  0
  7  8  2  0
  7 11  1  0
  8  9  1  0
  9 10  1  0
 11 12  1  0
 12 13  1  0
 13 14  1  0
 14 15  1  6
 15 16  1  0
 16 17  2  0
 16 29  1  0
 17 18  1  0
 18 19  2  0
 19 20  1  0
 20 21  1  0
 20 29  2  0
 21 22  2  3
 22 23  1  0
 23 24  2  0
 23 28  1  0
 24 25  1  0
 25 26  2  0
 26 27  1  0
 27 28  2  0
M  CHG  1  26   1
M  END
