
     RDKit          3D

 23 23  0  0  0  0  0  0  0  0999 V2000
    1.6550   -0.6820   -2.0790 O   0  0  0  0  0  0  0  0  0  0  0  0
    1.8970   -0.6580   -0.8510 C   0  0  0  0  0  0  0  0  0  0  0  0
    3.1890   -0.5600   -0.4280 O   0  0  0  0  0  0  0  0  0  0  0  0
    4.3190   -0.4800   -1.2740 C   0  0  0  0  0  0  0  0  0  0  0  0
    5.5380   -0.3850   -0.3470 C   0  0  1  0  0  0  0  0  0  0  0  0
    6.7190   -0.3010   -1.0640 O   0  0  0  0  0  0  0  0  0  0  0  0
    5.4480    0.8230    0.5430 C   0  0  0  0  0  0  0  0  0  0  0  0
    5.4490    2.0120   -0.1520 O   0  0  0  0  0  0  0  0  0  0  0  0
    0.7620   -0.7380    0.0980 C   0  0  2  0  0  0  0  0  0  0  0  0
    1.2820   -0.6930    1.3930 O   0  0  0  0  0  0  0  0  0  0  0  0
    0.0230   -2.0530   -0.0220 C   0  0  0  0  0  0  0  0  0  0  0  0
   -1.1450   -1.7410    0.6520 O   0  0  0  0  0  0  0  0  0  0  0  0
   -1.4320   -0.3820    0.3770 C   0  0  2  0  0  0  0  0  0  0  0  0
   -1.6420    0.2950    1.6740 C   0  0  0  0  0  0  0  0  0  0  0  0
   -2.6770   -0.2510    2.3830 O   0  0  0  0  0  0  0  0  0  0  0  0
   -2.5020   -0.4020   -0.6380 C   0  0  2  0  0  0  0  0  0  0  0  0
   -1.9910   -1.0500   -1.7840 O   0  0  0  0  0  0  0  0  0  0  0  0
   -3.2630    0.8020   -0.9720 C   0  0  0  0  0  0  0  0  0  0  0  0
   -4.1260    1.4490    0.0350 C   0  0  1  0  0  0  0  0  0  0  0  0
   -4.6560    2.6180   -0.6320 O   0  0  0  0  0  0  0  0  0  0  0  0
   -5.4180    0.6530    0.2760 C   0  0  0  0  0  0  0  0  0  0  0  0
   -5.2250   -0.5510    0.8850 O   0  0  0  0  0  0  0  0  0  0  0  0
   -0.2330    0.1570   -0.1540 O   0  0  0  0  0  0  0  0  0  0  0  0
  1  2  2  0
  2  3  1  0
  2  9  1  0
  3  4  1  0
  4  5  1  0
  5  6  1  6
  5  7  1  0
  7  8  1  0
  9 10  1  1
  9 11  1  0
  9 23  1  0
 11 12  1  0
 12 13  1  0
 13 14  1  1
 13 16  1  0
 13 23  1  0
 14 15  1  0
 16 17  1  6
 16 18  1  0
 18 19  1  0
 19 20  1  6
 19 21  1  0
 21 22  1  0
M  END
