
     RDKit          3D

 22 22  0  0  0  0  0  0  0  0999 V2000
   -5.5280    0.8080    0.8100 C   0  0  0  0  0  0  0  0  0  0  0  0
   -4.7080   -0.2670    0.1790 C   0  0  1  0  0  0  0  0  0  0  0  0
   -5.0930   -0.5150   -1.2770 C   0  0  0  0  0  0  0  0  0  0  0  0
   -4.2650   -1.5720   -1.7260 O   0  0  0  0  0  0  0  0  0  0  0  0
   -3.3130   -2.1340   -0.8950 C   0  0  0  0  0  0  0  0  0  0  0  0
   -3.1240   -3.3750   -0.8930 O   0  0  0  0  0  0  0  0  0  0  0  0
   -2.4980   -1.2840    0.0060 C   0  0  1  0  0  0  0  0  0  0  0  0
   -2.4550   -1.9190    1.2420 O   0  0  0  0  0  0  0  0  0  0  0  0
   -1.2450   -1.1290   -0.5660 O   0  0  0  0  0  0  0  0  0  0  0  0
   -0.3690   -0.3860    0.1860 C   0  0  0  0  0  0  0  0  0  0  0  0
    0.9410   -0.3090   -0.5650 C   0  0  2  0  0  0  0  0  0  0  0  0
    1.4160   -1.6240   -0.7420 O   0  0  0  0  0  0  0  0  0  0  0  0
    2.0060    0.4300    0.2050 C   0  0  0  0  0  0  0  0  0  0  0  0
    3.1680    0.4010   -0.5470 O   0  0  0  0  0  0  0  0  0  0  0  0
    4.2340    1.0390    0.0320 C   0  0  2  0  0  0  0  0  0  0  0  0
    4.8250    2.1360   -0.8270 C   0  0  0  0  0  0  0  0  0  0  0  0
    5.2860    1.6380   -2.0500 O   0  0  0  0  0  0  0  0  0  0  0  0
    5.3410   -0.0100    0.2030 C   0  0  2  0  0  0  0  0  0  0  0  0
    4.9370   -1.0520    1.0010 O   0  0  0  0  0  0  0  0  0  0  0  0
    6.4780    0.5880    0.7380 O   0  0  0  0  0  0  0  0  0  0  0  0
   -3.2260    0.0330    0.1710 C   0  0  2  0  0  0  0  0  0  0  0  0
   -2.8280    0.6970    1.3300 O   0  0  0  0  0  0  0  0  0  0  0  0
  2  1  1  6
  2  3  1  0
  2 21  1  0
  3  4  1  0
  4  5  1  0
  5  6  2  0
  5  7  1  0
  7  8  1  1
  7  9  1  0
  7 21  1  0
  9 10  1  0
 10 11  1  0
 11 12  1  1
 11 13  1  0
 13 14  1  0
 14 15  1  0
 15 16  1  6
 15 18  1  0
 16 17  1  0
 18 19  1  1
 18 20  1  0
 21 22  1  1
M  END
