
     RDKit          3D

 16 17  0  0  0  0  0  0  0  0999 V2000
    3.9130   -1.0930    1.2220 C   0  0  0  0  0  0  0  0  0  0  0  0
    4.5060   -0.3100    0.0870 C   0  0  0  0  0  0  0  0  0  0  0  0
    3.6030   -0.3600   -1.0010 O   0  0  0  0  0  0  0  0  0  0  0  0
    2.3260    0.1620   -0.7860 C   0  0  0  0  0  0  0  0  0  0  0  0
    1.2640   -0.6130   -0.7480 C   0  0  0  0  0  0  0  0  0  0  0  0
   -0.0760   -0.1170   -0.5290 C   0  0  0  0  0  0  0  0  0  0  0  0
   -1.1880   -0.9460   -0.4900 C   0  0  0  0  0  0  0  0  0  0  0  0
   -2.4710   -0.4280   -0.2760 C   0  0  0  0  0  0  0  0  0  0  0  0
   -3.6510   -1.3260   -0.2370 C   0  0  0  0  0  0  0  0  0  0  0  0
   -3.2120   -2.6320   -0.4410 O   0  0  0  0  0  0  0  0  0  0  0  0
   -2.6280    0.9290   -0.1000 C   0  0  0  0  0  0  0  0  0  0  0  0
   -4.0010    1.4440    0.1260 C   0  0  0  0  0  0  0  0  0  0  0  0
   -1.5120    1.7300   -0.1420 C   0  0  0  0  0  0  0  0  0  0  0  0
   -0.2350    1.2310   -0.3540 C   0  0  0  0  0  0  0  0  0  0  0  0
    0.8840    2.0460   -0.3950 O   0  0  0  0  0  0  0  0  0  0  0  0
    2.2070    1.6160   -0.6040 C   0  0  0  0  0  0  0  0  0  0  0  0
  1  2  1  0
  2  3  1  0
  3  4  1  0
  4  5  2  0
  4 16  1  0
  5  6  1  0
  6  7  2  0
  6 14  1  0
  7  8  1  0
  8  9  1  0
  8 11  2  0
  9 10  1  0
 11 12  1  0
 11 13  1  0
 13 14  2  0
 14 15  1  0
 15 16  1  0
M  END
