
     RDKit          3D

 16 17  0  0  0  0  0  0  0  0999 V2000
    4.3560   -1.0970   -0.0720 C   0  0  0  0  0  0  0  0  0  0  0  0
    4.0920    0.3240   -0.4490 C   0  0  0  0  0  0  0  0  0  0  0  0
    2.8910    0.8450    0.0690 O   0  0  0  0  0  0  0  0  0  0  0  0
    1.6560    0.3140   -0.2310 C   0  0  0  0  0  0  0  0  0  0  0  0
    1.4630   -0.7560   -1.0570 C   0  0  0  0  0  0  0  0  0  0  0  0
    0.2140   -1.2510   -1.3270 C   0  0  0  0  0  0  0  0  0  0  0  0
   -0.8610   -0.6040   -0.7110 C   0  0  0  0  0  0  0  0  0  0  0  0
   -0.6780    0.4830    0.1310 C   0  0  0  0  0  0  0  0  0  0  0  0
    0.5610    0.9720    0.3950 C   0  0  0  0  0  0  0  0  0  0  0  0
    0.7770    2.0190    1.1960 O   0  0  0  0  0  0  0  0  0  0  0  0
   -1.6560    1.2940    0.8950 C   0  0  0  0  0  0  0  0  0  0  0  0
   -2.9550    1.5250    0.7960 C   0  0  0  0  0  0  0  0  0  0  0  0
   -3.9440    1.0190   -0.1740 C   0  0  0  0  0  0  0  0  0  0  0  0
   -4.0920   -0.1460   -0.7970 C   0  0  0  0  0  0  0  0  0  0  0  0
   -3.3430   -1.4290   -0.7930 C   0  0  0  0  0  0  0  0  0  0  0  0
   -1.9940   -1.2890   -1.1460 O   0  0  0  0  0  0  0  0  0  0  0  0
  1  2  1  0
  2  3  1  0
  3  4  1  0
  4  5  2  0
  4  9  1  0
  5  6  1  0
  6  7  2  0
  7  8  1  0
  7 16  1  0
  8  9  2  0
  8 11  1  0
  9 10  1  0
 11 12  2  0
 12 13  1  0
 13 14  2  0
 14 15  1  0
 15 16  1  0
M  END
