
     RDKit          3D

 12 11  0  0  0  0  0  0  0  0999 V2000
    4.2950    0.0700   -0.2830 O   0  0  0  0  0  0  0  0  0  0  0  0
    3.3870   -0.6760    0.4430 C   0  0  0  0  0  0  0  0  0  0  0  0
    1.9720   -0.0330    0.3650 C   0  0  0  0  0  0  0  0  0  0  0  0
    1.6480   -0.0210   -0.9380 O   0  0  0  0  0  0  0  0  0  0  0  0
    0.5100    0.5350   -1.4020 C   0  0  0  0  0  0  0  0  0  0  0  0
   -0.7040    0.1210   -1.0100 O   0  0  0  0  0  0  0  0  0  0  0  0
   -1.1260    0.1770    0.2650 C   0  0  2  0  0  0  0  0  0  0  0  0
   -1.5200   -1.2230    0.7150 C   0  0  0  0  0  0  0  0  0  0  0  0
   -2.5580   -1.6270   -0.1590 O   0  0  0  0  0  0  0  0  0  0  0  0
   -2.4200    0.9810    0.4300 C   0  0  1  0  0  0  0  0  0  0  0  0
   -2.2650    2.2870    0.0150 O   0  0  0  0  0  0  0  0  0  0  0  0
   -3.4210    0.3440   -0.2700 O   0  0  0  0  0  0  0  0  0  0  0  0
  1  2  1  0
  2  3  1  0
  3  4  1  0
  4  5  1  0
  5  6  1  0
  6  7  1  0
  7  8  1  6
  7 10  1  0
  8  9  1  0
 10 11  1  6
 10 12  1  0
M  END
