
     RDKit          3D

 12 11  0  0  0  0  0  0  0  0999 V2000
    5.0270    0.5030   -0.4660 O   0  0  0  0  0  0  0  0  0  0  0  0
    3.6420    0.6780   -0.2440 C   0  0  0  0  0  0  0  0  0  0  0  0
    3.2980   -0.1510    0.7910 O   0  0  0  0  0  0  0  0  0  0  0  0
    1.9840   -0.1290    1.1620 C   0  0  0  0  0  0  0  0  0  0  0  0
    1.0500   -0.5260    0.0480 C   0  0  1  0  0  0  0  0  0  0  0  0
    1.4050   -1.8320   -0.3210 O   0  0  0  0  0  0  0  0  0  0  0  0
   -0.2570   -0.5920    0.5000 O   0  0  0  0  0  0  0  0  0  0  0  0
   -1.1480    0.1270   -0.2760 C   0  0  0  0  0  0  0  0  0  0  0  0
   -2.5220   -0.0430    0.3410 C   0  0  2  0  0  0  0  0  0  0  0  0
   -2.8920   -1.3740    0.3660 O   0  0  0  0  0  0  0  0  0  0  0  0
   -3.5280    0.7290   -0.4870 C   0  0  0  0  0  0  0  0  0  0  0  0
   -4.8050    0.6220    0.0560 O   0  0  0  0  0  0  0  0  0  0  0  0
  1  2  1  0
  2  3  1  0
  3  4  1  0
  4  5  1  0
  5  6  1  1
  5  7  1  0
  7  8  1  0
  8  9  1  0
  9 10  1  6
  9 11  1  0
 11 12  1  0
M  END
