
     RDKit          3D

 13 12  0  0  0  0  0  0  0  0999 V2000
    1.7470    1.2520   -1.4130 O   0  0  0  0  0  0  0  0  0  0  0  0
    2.2480    0.2790   -0.8150 C   0  0  0  0  0  0  0  0  0  0  0  0
    3.6210    0.1170   -0.7150 O   0  0  0  0  0  0  0  0  0  0  0  0
    1.3770   -0.7310   -0.1950 C   0  0  0  0  0  0  0  0  0  0  0  0
   -0.0980   -0.4300   -0.2940 C   0  0  2  0  0  0  0  0  0  0  0  0
   -0.4040   -0.3350   -1.6530 O   0  0  0  0  0  0  0  0  0  0  0  0
   -0.4340    0.7880    0.4910 C   0  0  0  0  0  0  0  0  0  0  0  0
   -1.9030    1.1110    0.4130 C   0  0  0  0  0  0  0  0  0  0  0  0
   -2.6350    0.3540   -0.2690 O   0  0  0  0  0  0  0  0  0  0  0  0
   -2.4720    2.1880    1.0500 O   0  0  0  0  0  0  0  0  0  0  0  0
   -0.8110   -1.6340    0.2830 C   0  0  0  0  0  0  0  0  0  0  0  0
   -1.5370   -2.3580   -0.4350 O   0  0  0  0  0  0  0  0  0  0  0  0
   -0.6540   -1.9280    1.6220 O   0  0  0  0  0  0  0  0  0  0  0  0
  1  2  2  0
  2  3  1  0
  2  4  1  0
  4  5  1  0
  5  6  1  6
  5  7  1  0
  5 11  1  0
  7  8  1  0
  8  9  2  0
  8 10  1  0
 11 12  2  0
 11 13  1  0
M  END
