
     RDKit          3D

 12 11  0  0  0  0  0  0  0  0999 V2000
   -3.7630    1.5030   -0.4960 O   0  0  0  0  0  0  0  0  0  0  0  0
   -2.5400    2.0750   -0.1370 C   0  0  0  0  0  0  0  0  0  0  0  0
   -1.4330    1.0980   -0.4420 C   0  0  0  0  0  0  0  0  0  0  0  0
   -1.5790   -0.0990    0.2560 O   0  0  0  0  0  0  0  0  0  0  0  0
   -0.5020   -0.9050   -0.1140 C   0  0  2  0  0  0  0  0  0  0  0  0
   -1.1090   -2.1410   -0.7800 C   0  0  0  0  0  0  0  0  0  0  0  0
   -0.1230   -3.0180   -1.1910 O   0  0  0  0  0  0  0  0  0  0  0  0
    0.1290   -1.3070    1.0390 O   0  0  0  0  0  0  0  0  0  0  0  0
    1.4730   -1.0330    1.0790 C   0  0  0  0  0  0  0  0  0  0  0  0
    1.7230    0.3380    0.9720 O   0  0  0  0  0  0  0  0  0  0  0  0
    3.1000    0.5600    1.0180 C   0  0  0  0  0  0  0  0  0  0  0  0
    3.3470    1.9290    0.9110 O   0  0  0  0  0  0  0  0  0  0  0  0
  1  2  1  0
  2  3  1  0
  3  4  1  0
  4  5  1  0
  5  6  1  1
  5  8  1  0
  6  7  1  0
  8  9  1  0
  9 10  1  0
 10 11  1  0
 11 12  1  0
M  END
