
     RDKit          3D

 11 11  0  0  0  0  0  0  0  0999 V2000
   -3.0150    1.3570   -0.2890 N   0  0  0  0  0  0  0  0  0  0  0  0
   -2.1830    0.3910   -0.1050 C   0  0  0  0  0  0  0  0  0  0  0  0
   -2.7430   -0.8970    0.1020 N   0  0  0  0  0  0  0  0  0  0  0  0
   -0.7430    0.6530   -0.1180 C   0  0  1  0  0  0  0  0  0  0  0  0
   -0.1290    0.3110    1.0860 O   0  0  0  0  0  0  0  0  0  0  0  0
    0.7970   -0.6930    0.9700 C   0  0  0  0  0  0  0  0  0  0  0  0
    2.2050   -0.2010    0.7410 C   0  0  0  0  0  0  0  0  0  0  0  0
    2.3530    0.3860   -0.6340 C   0  0  0  0  0  0  0  0  0  0  0  0
    1.3080   -0.1390   -1.4330 O   0  0  0  0  0  0  0  0  0  0  0  0
   -0.0410   -0.0830   -1.2140 C   0  0  0  0  0  0  0  0  0  0  0  0
   -0.7760   -0.7180   -2.0220 O   0  0  0  0  0  0  0  0  0  0  0  0
  1  2  2  0
  2  3  1  0
  4  2  1  1
  4  5  1  0
  4 10  1  0
  5  6  1  0
  6  7  1  0
  7  8  1  0
  8  9  1  0
  9 10  1  0
 10 11  2  0
M  END
