
     RDKit          3D

 11 11  0  0  0  0  0  0  0  0999 V2000
   -2.6870    0.9900   -0.2060 C   0  0  0  0  0  0  0  0  0  0  0  0
   -1.5600    0.1170    0.3630 C   0  0  2  0  0  0  0  0  0  0  0  0
   -0.4000    0.8280    0.2360 O   0  0  0  0  0  0  0  0  0  0  0  0
    0.7480    0.1670    0.5620 C   0  0  2  0  0  0  0  0  0  0  0  0
    1.8960    0.9290   -0.1140 C   0  0  0  0  0  0  0  0  0  0  0  0
    3.1630    0.3290    0.1540 N   0  0  0  0  0  0  0  0  0  0  0  0
    0.7640   -1.2590    0.2210 C   0  0  0  0  0  0  0  0  0  0  0  0
    1.8300   -1.9090    0.3720 O   0  0  0  0  0  0  0  0  0  0  0  0
   -0.3730   -1.9490   -0.2780 N   0  0  0  0  0  0  0  0  0  0  0  0
   -1.5750   -1.1590   -0.4000 C   0  0  0  0  0  0  0  0  0  0  0  0
   -2.5290   -1.5490   -1.1000 O   0  0  0  0  0  0  0  0  0  0  0  0
  2  1  1  6
  2  3  1  0
  2 10  1  0
  3  4  1  0
  4  5  1  6
  4  7  1  0
  5  6  1  0
  7  8  2  0
  7  9  1  0
  9 10  1  0
 10 11  2  0
M  END
