
     RDKit          3D

 11 11  0  0  0  0  0  0  0  0999 V2000
   -4.0040    0.0580   -0.1620 C   0  0  0  0  0  0  0  0  0  0  0  0
   -2.6380    0.3000   -0.0810 O   0  0  0  0  0  0  0  0  0  0  0  0
   -1.7480   -0.7380    0.1590 C   0  0  0  0  0  0  0  0  0  0  0  0
   -2.2490   -1.8830    0.2960 O   0  0  0  0  0  0  0  0  0  0  0  0
   -0.3050   -0.5200    0.2500 C   0  0  0  0  0  0  0  0  0  0  0  0
    0.3340    0.6320    0.1240 C   0  0  0  0  0  0  0  0  0  0  0  0
    1.7870    0.3700    0.2910 C   0  0  2  0  0  0  0  0  0  0  0  0
    2.6370    1.2790   -0.5490 C   0  0  0  0  0  0  0  0  0  0  0  0
    3.9580    0.8890   -0.4170 O   0  0  0  0  0  0  0  0  0  0  0  0
    1.8800   -1.0140   -0.0830 N   0  0  0  0  0  0  0  0  0  0  0  0
    0.6800   -1.5210    0.4910 N   0  0  0  0  0  0  0  0  0  0  0  0
  1  2  1  0
  2  3  1  0
  3  4  2  0
  3  5  1  0
  5  6  2  0
  5 11  1  0
  6  7  1  0
  7  8  1  6
  7 10  1  0
  8  9  1  0
 10 11  1  0
M  END
