
     RDKit          3D

 11 11  0  0  0  0  0  0  0  0999 V2000
   -3.4270    0.0510   -0.8650 N   0  0  0  0  0  0  0  0  0  0  0  0
   -2.4420   -0.1000    0.1520 C   0  0  0  0  0  0  0  0  0  0  0  0
   -2.8690   -0.3260    1.3170 O   0  0  0  0  0  0  0  0  0  0  0  0
   -1.1010   -0.0010   -0.1410 O   0  0  0  0  0  0  0  0  0  0  0  0
   -0.1530   -0.1580    0.9000 C   0  0  1  0  0  0  0  0  0  0  0  0
    0.7580   -1.3040    0.6540 C   0  0  0  0  0  0  0  0  0  0  0  0
    1.8970   -1.1240   -0.0020 C   0  0  0  0  0  0  0  0  0  0  0  0
    2.2630    0.2330   -0.4940 C   0  0  0  0  0  0  0  0  0  0  0  0
    1.9050    1.2250    0.5280 N   0  0  0  0  0  0  0  0  0  0  0  0
    0.5960    1.0980    1.0760 C   0  0  0  0  0  0  0  0  0  0  0  0
    0.1110    2.0610    1.6990 O   0  0  0  0  0  0  0  0  0  0  0  0
  1  2  1  0
  2  3  2  0
  2  4  1  0
  5  4  1  6
  5  6  1  0
  5 10  1  0
  6  7  2  0
  7  8  1  0
  8  9  1  0
  9 10  1  0
 10 11  2  0
M  END
