
     RDKit          3D

 11 11  0  0  0  0  0  0  0  0999 V2000
    2.1890    0.3340   -0.3500 C   0  0  0  0  0  0  0  0  0  0  0  0
    1.2000   -0.5690    0.4180 C   0  0  2  0  0  0  0  0  0  0  0  0
    0.7820   -1.7120   -0.2900 N   0  0  0  0  0  0  0  0  0  0  0  0
   -0.6260   -1.9780   -0.3490 C   0  0  0  0  0  0  0  0  0  0  0  0
   -1.0270   -3.1840   -0.3350 O   0  0  0  0  0  0  0  0  0  0  0  0
   -1.5160   -0.7790   -0.4000 C   0  0  0  0  0  0  0  0  0  0  0  0
   -1.1050    0.3460    0.5510 C   0  0  2  0  0  0  0  0  0  0  0  0
   -1.3290    1.6260   -0.1570 C   0  0  0  0  0  0  0  0  0  0  0  0
   -2.2100    1.6660   -1.0290 O   0  0  0  0  0  0  0  0  0  0  0  0
   -0.5540    2.7250    0.1180 O   0  0  0  0  0  0  0  0  0  0  0  0
    0.2190    0.2090    0.9980 N   0  0  0  0  0  0  0  0  0  0  0  0
  2  1  1  6
  2  3  1  0
  2 11  1  0
  3  4  1  0
  4  5  2  0
  4  6  1  0
  6  7  1  0
  7  8  1  6
  7 11  1  0
  8  9  2  0
  8 10  1  0
M  END
