
     RDKit          3D

 11 11  0  0  0  0  0  0  0  0999 V2000
   -1.8700    1.5040    0.2350 O   0  0  0  0  0  0  0  0  0  0  0  0
   -1.9640    0.1460   -0.0030 C   0  0  1  0  0  0  0  0  0  0  0  0
   -3.1510   -0.2920    0.5920 O   0  0  0  0  0  0  0  0  0  0  0  0
   -2.1380   -0.0110   -1.3800 O   0  0  0  0  0  0  0  0  0  0  0  0
   -0.8410   -0.6670    0.5050 C   0  0  0  0  0  0  0  0  0  0  0  0
    0.5070   -0.3590   -0.0210 C   0  0  1  0  0  0  0  0  0  0  0  0
    0.5530   -0.5240   -1.4140 O   0  0  0  0  0  0  0  0  0  0  0  0
    1.0810    0.9640    0.3040 C   0  0  0  0  0  0  0  0  0  0  0  0
    2.5580    0.6920    0.0700 C   0  0  0  0  0  0  0  0  0  0  0  0
    2.7320   -0.6680    0.0790 O   0  0  0  0  0  0  0  0  0  0  0  0
    1.5840   -1.2640    0.5450 C   0  0  0  0  0  0  0  0  0  0  0  0
  2  1  1  6
  2  3  1  0
  2  4  1  0
  2  5  1  0
  5  6  1  0
  6  7  1  6
  6  8  1  0
  6 11  1  0
  8  9  1  0
  9 10  1  0
 10 11  1  0
M  END
