
     RDKit          3D

 11 11  0  0  0  0  0  0  0  0999 V2000
   -3.5110   -0.3250    0.1770 O   0  0  0  0  0  0  0  0  0  0  0  0
   -2.1820   -0.2010    0.5830 C   0  0  2  0  0  0  0  0  0  0  0  0
   -2.0000    1.0420    1.1870 O   0  0  0  0  0  0  0  0  0  0  0  0
   -1.3350   -0.2420   -0.6660 C   0  0  0  0  0  0  0  0  0  0  0  0
    0.1400   -0.1170   -0.3670 C   0  0  2  0  0  0  0  0  0  0  0  0
    0.7920   -0.1710   -1.6220 O   0  0  0  0  0  0  0  0  0  0  0  0
    0.6740   -1.2570    0.4530 C   0  0  0  0  0  0  0  0  0  0  0  0
    1.8610   -0.8870    1.0840 O   0  0  0  0  0  0  0  0  0  0  0  0
    2.6050   -0.0210    0.3100 C   0  0  0  0  0  0  0  0  0  0  0  0
    1.8410    1.2710    0.1140 C   0  0  0  0  0  0  0  0  0  0  0  0
    0.4710    1.0930    0.1990 O   0  0  0  0  0  0  0  0  0  0  0  0
  2  1  1  6
  2  3  1  0
  2  4  1  0
  4  5  1  0
  5  6  1  6
  5  7  1  0
  5 11  1  0
  7  8  1  0
  8  9  1  0
  9 10  1  0
 10 11  1  0
M  END
