
     RDKit          3D

 27 28  0  0  0  0  0  0  0  0999 V2000
    7.0760   -1.6680   -1.1790 C   0  0  0  0  0  0  0  0  0  0  0  0
    6.4420   -1.0830   -0.0410 O   0  0  0  0  0  0  0  0  0  0  0  0
    7.1440   -0.3510    0.8920 C   0  0  0  0  0  0  0  0  0  0  0  0
    8.3760   -0.1740    0.7690 O   0  0  0  0  0  0  0  0  0  0  0  0
    6.4400    0.2270    2.0420 C   0  0  0  0  0  0  0  0  0  0  0  0
    5.0550   -0.0630    2.0360 O   0  0  0  0  0  0  0  0  0  0  0  0
    4.2160    0.3390    0.9850 C   0  0  0  0  0  0  0  0  0  0  0  0
    4.7560    0.9610    0.0640 O   0  0  0  0  0  0  0  0  0  0  0  0
    2.8440    0.0620    0.9600 N   0  0  0  0  0  0  0  0  0  0  0  0
    1.9570    0.4480   -0.0800 C   0  0  0  0  0  0  0  0  0  0  0  0
    2.2640    1.1270   -1.1930 N   0  0  0  0  0  0  0  0  0  0  0  0
    1.1260    1.2720   -1.8930 C   0  0  0  0  0  0  0  0  0  0  0  0
    0.1040    0.6940   -1.2360 N   0  0  0  0  0  0  0  0  0  0  0  0
    0.5920    0.1720   -0.1030 C   0  0  0  0  0  0  0  0  0  0  0  0
   -0.1330   -0.5570    0.9400 C   0  0  0  0  0  0  0  0  0  0  0  0
   -1.5260   -0.6800    0.6300 O   0  0  0  0  0  0  0  0  0  0  0  0
   -2.3480    0.3920    0.4520 C   0  0  0  0  0  0  0  0  0  0  0  0
   -1.8910    1.5570    0.5580 O   0  0  0  0  0  0  0  0  0  0  0  0
   -3.7720    0.2330    0.1360 C   0  0  0  0  0  0  0  0  0  0  0  0
   -4.1760   -1.0200    0.0410 C   0  0  0  0  0  0  0  0  0  0  0  0
   -5.4480   -1.6980   -0.2440 C   0  0  0  0  0  0  0  0  0  0  0  0
   -6.7280   -1.3630   -0.1200 C   0  0  0  0  0  0  0  0  0  0  0  0
   -7.4750   -0.1910    0.3450 C   0  0  0  0  0  0  0  0  0  0  0  0
   -7.0200    1.0880   -0.2030 C   0  0  0  0  0  0  0  0  0  0  0  0
   -7.8770    1.7400   -0.8880 O   0  0  0  0  0  0  0  0  0  0  0  0
   -5.7670    1.8280   -0.1500 C   0  0  0  0  0  0  0  0  0  0  0  0
   -4.4810    1.4930   -0.0170 C   0  0  0  0  0  0  0  0  0  0  0  0
  1  2  1  0
  2  3  1  0
  3  4  2  0
  3  5  1  0
  5  6  1  0
  6  7  1  0
  7  8  2  0
  7  9  1  0
  9 10  1  0
 10 11  1  0
 10 14  2  0
 11 12  1  0
 12 13  2  0
 13 14  1  0
 14 15  1  0
 15 16  1  0
 16 17  1  0
 17 18  2  0
 17 19  1  0
 19 20  2  0
 19 27  1  0
 20 21  1  0
 21 22  2  0
 22 23  1  0
 23 24  1  0
 24 25  2  0
 24 26  1  0
 26 27  2  0
M  END
