
     RDKit          3D

 27 29  0  0  0  0  0  0  0  0999 V2000
    5.0460   -3.6860   -1.1590 C   0  0  0  0  0  0  0  0  0  0  0  0
    5.5560   -2.7620   -0.2810 O   0  0  0  0  0  0  0  0  0  0  0  0
    5.0740   -1.4850   -0.4190 C   0  0  0  0  0  0  0  0  0  0  0  0
    3.5980   -1.4220   -0.2250 C   0  0  0  0  0  0  0  0  0  0  0  0
    3.0960   -0.0690   -0.3710 N   0  0  0  0  0  0  0  0  0  0  0  0
    1.6720    0.1880   -0.2150 C   0  0  0  0  0  0  0  0  0  0  0  0
    1.0170   -0.8390    0.0400 O   0  0  0  0  0  0  0  0  0  0  0  0
    1.2270    1.5530   -0.3720 C   0  0  0  0  0  0  0  0  0  0  0  0
   -0.0390    1.9960   -0.2660 C   0  0  0  0  0  0  0  0  0  0  0  0
   -0.9910    1.0280    0.0220 N   0  0  0  0  0  0  0  0  0  0  0  0
   -2.3760    1.0280    0.2140 C   0  0  0  0  0  0  0  0  0  0  0  0
   -3.0410    2.0350    0.1490 O   0  0  0  0  0  0  0  0  0  0  0  0
   -3.1010   -0.2410    0.5150 C   0  0  0  0  0  0  0  0  0  0  0  0
   -2.5940   -1.4580    0.1460 C   0  0  0  0  0  0  0  0  0  0  0  0
   -3.2890   -2.6340    0.4480 C   0  0  0  0  0  0  0  0  0  0  0  0
   -4.4850   -2.5840    1.1150 C   0  0  0  0  0  0  0  0  0  0  0  0
   -5.1840   -3.7620    1.4190 O   0  0  0  0  0  0  0  0  0  0  0  0
   -5.6130   -3.9860    2.6520 O   0  0  0  0  0  0  0  0  0  0  0  0
   -4.9870   -1.3510    1.4810 C   0  0  0  0  0  0  0  0  0  0  0  0
   -4.3040   -0.1920    1.1850 C   0  0  0  0  0  0  0  0  0  0  0  0
   -0.3500    3.4040   -0.4480 C   0  0  0  0  0  0  0  0  0  0  0  0
   -1.4710    4.1830   -0.4170 C   0  0  0  0  0  0  0  0  0  0  0  0
   -1.1340    5.5110   -0.6770 C   0  0  0  0  0  0  0  0  0  0  0  0
    0.1890    5.5170   -0.8620 N   0  0  0  0  0  0  0  0  0  0  0  0
    0.6900    4.2960   -0.7360 C   0  0  0  0  0  0  0  0  0  0  0  0
    1.9870    3.8190   -0.8400 O   0  0  0  0  0  0  0  0  0  0  0  0
    2.2100    2.5110   -0.6620 O   0  0  0  0  0  0  0  0  0  0  0  0
  1  2  1  0
  2  3  1  0
  3  4  1  0
  4  5  1  0
  5  6  1  0
  6  7  2  0
  6  8  1  0
  8  9  2  0
  8 27  1  0
  9 10  1  0
  9 21  1  0
 10 11  1  0
 11 12  2  0
 11 13  1  0
 13 14  2  0
 13 20  1  0
 14 15  1  0
 15 16  2  0
 16 17  1  0
 16 19  1  0
 17 18  1  0
 19 20  2  0
 21 22  1  0
 21 25  2  0
 22 23  2  0
 23 24  1  0
 24 25  1  0
 25 26  1  0
 26 27  1  0
M  END
