
     RDKit          3D

 27 28  0  0  0  0  0  0  0  0999 V2000
   -4.1730   -0.0090   -1.6190 C   0  0  0  0  0  0  0  0  0  0  0  0
   -4.5010    0.4910   -0.2310 C   0  0  1  0  0  0  0  0  0  0  0  0
   -5.0020   -0.6610    0.6470 C   0  0  0  0  0  0  0  0  0  0  0  0
   -6.1590   -1.2550    0.1230 O   0  0  0  0  0  0  0  0  0  0  0  0
   -7.3430   -0.5950   -0.0880 C   0  0  0  0  0  0  0  0  0  0  0  0
   -7.4480    0.6110    0.1870 O   0  0  0  0  0  0  0  0  0  0  0  0
   -8.4480   -1.2520   -0.6120 O   0  0  0  0  0  0  0  0  0  0  0  0
   -3.2710    1.0520    0.3930 C   0  0  0  0  0  0  0  0  0  0  0  0
   -3.2460    2.2480    0.7480 O   0  0  0  0  0  0  0  0  0  0  0  0
   -2.1860    0.2460    0.5670 O   0  0  0  0  0  0  0  0  0  0  0  0
   -0.9990    0.6950    1.1380 C   0  0  0  0  0  0  0  0  0  0  0  0
   -0.3460    1.8020    0.3450 C   0  0  0  0  0  0  0  0  0  0  0  0
   -0.0750    1.2780   -0.9430 O   0  0  0  0  0  0  0  0  0  0  0  0
    0.7420    0.1890   -1.1220 C   0  0  0  0  0  0  0  0  0  0  0  0
    1.6470   -0.0740   -0.2620 N   0  0  0  0  0  0  0  0  0  0  0  0
    2.5220   -1.1820   -0.3890 C   0  0  0  0  0  0  0  0  0  0  0  0
    2.0410   -2.4730   -0.6100 C   0  0  0  0  0  0  0  0  0  0  0  0
    3.1200   -3.2470   -0.6770 N   0  0  0  0  0  0  0  0  0  0  0  0
    4.2180   -2.4760   -0.5060 C   0  0  0  0  0  0  0  0  0  0  0  0
    5.3740   -2.9780   -0.5280 O   0  0  0  0  0  0  0  0  0  0  0  0
    3.8600   -1.1910   -0.3270 N   0  0  0  0  0  0  0  0  0  0  0  0
    4.7190   -0.1050   -0.1190 C   0  0  0  0  0  0  0  0  0  0  0  0
    5.7750   -0.2330    0.7910 C   0  0  0  0  0  0  0  0  0  0  0  0
    6.6310    0.8200    1.0110 C   0  0  0  0  0  0  0  0  0  0  0  0
    6.4670    2.0090    0.3450 C   0  0  0  0  0  0  0  0  0  0  0  0
    5.4270    2.1500   -0.5580 C   0  0  0  0  0  0  0  0  0  0  0  0
    4.5700    1.0930   -0.7770 C   0  0  0  0  0  0  0  0  0  0  0  0
  2  1  1  6
  2  3  1  0
  2  8  1  0
  3  4  1  0
  4  5  1  0
  5  6  2  0
  5  7  1  0
  8  9  2  0
  8 10  1  0
 10 11  1  0
 11 12  1  0
 12 13  1  0
 13 14  1  0
 14 15  2  3
 15 16  1  0
 16 17  2  0
 16 21  1  0
 17 18  1  0
 18 19  1  0
 19 20  2  0
 19 21  1  0
 21 22  1  0
 22 23  2  0
 22 27  1  0
 23 24  1  0
 24 25  2  0
 25 26  1  0
 26 27  2  0
M  END
