
     RDKit          3D

 28 31  0  0  0  0  0  0  0  0999 V2000
   -1.5550   -1.4660   -2.2310 C   0  0  0  0  0  0  0  0  0  0  0  0
   -0.4600   -0.8530   -1.4050 C   0  0  0  0  0  0  0  0  0  0  0  0
    0.7520   -0.5950   -1.9370 N   0  0  0  0  0  0  0  0  0  0  0  0
    1.7410   -0.0470   -1.2160 C   0  0  0  0  0  0  0  0  0  0  0  0
    1.5010    0.2550    0.1040 C   0  0  0  0  0  0  0  0  0  0  0  0
    2.5240    0.8580    0.9310 C   0  0  0  0  0  0  0  0  0  0  0  0
    2.1660    1.5950    1.8800 O   0  0  0  0  0  0  0  0  0  0  0  0
    3.9390    0.6460    0.7110 C   0  0  0  0  0  0  0  0  0  0  0  0
    4.8390    1.6390    1.1000 C   0  0  0  0  0  0  0  0  0  0  0  0
    6.1980    1.5040    0.9300 C   0  0  0  0  0  0  0  0  0  0  0  0
    6.6930    0.3550    0.3600 C   0  0  0  0  0  0  0  0  0  0  0  0
    5.8180   -0.6350   -0.0290 C   0  0  0  0  0  0  0  0  0  0  0  0
    6.3350   -1.7560   -0.5890 F   0  0  0  0  0  0  0  0  0  0  0  0
    4.4500   -0.5040    0.1390 C   0  0  0  0  0  0  0  0  0  0  0  0
    0.2580   -0.0080    0.6560 C   0  0  0  0  0  0  0  0  0  0  0  0
    0.0190    0.2640    1.8700 O   0  0  0  0  0  0  0  0  0  0  0  0
   -0.7550   -0.5700   -0.0880 C   0  0  0  0  0  0  0  0  0  0  0  0
   -2.0810   -0.8670    0.4390 C   0  0  0  0  0  0  0  0  0  0  0  0
   -2.4350   -2.0590    1.0200 C   0  0  0  0  0  0  0  0  0  0  0  0
   -3.7270   -2.2670    1.5010 C   0  0  0  0  0  0  0  0  0  0  0  0
   -4.0510   -3.4390    2.0650 F   0  0  0  0  0  0  0  0  0  0  0  0
   -4.6620   -1.2770    1.3960 C   0  0  0  0  0  0  0  0  0  0  0  0
   -4.3320   -0.0690    0.8150 C   0  0  0  0  0  0  0  0  0  0  0  0
   -5.3040    0.9180    0.7230 C   0  0  0  0  0  0  0  0  0  0  0  0
   -4.9500    2.1100    0.1410 C   0  0  0  0  0  0  0  0  0  0  0  0
   -3.6780    2.3150   -0.3320 C   0  0  0  0  0  0  0  0  0  0  0  0
   -2.7200    1.3250   -0.2330 C   0  0  0  0  0  0  0  0  0  0  0  0
   -3.0510    0.1170    0.3480 C   0  0  0  0  0  0  0  0  0  0  0  0
  1  2  1  0
  2  3  1  0
  2 17  2  0
  3  4  1  0
  4  5  2  0
  5  6  1  0
  5 15  1  0
  6  7  2  0
  6  8  1  0
  8  9  2  0
  8 14  1  0
  9 10  1  0
 10 11  2  0
 11 12  1  0
 12 13  1  0
 12 14  2  0
 15 16  2  0
 15 17  1  0
 17 18  1  0
 18 19  2  0
 18 28  1  0
 19 20  1  0
 20 21  1  0
 20 22  2  0
 22 23  1  0
 23 24  2  0
 23 28  1  0
 24 25  1  0
 25 26  2  0
 26 27  1  0
 27 28  2  0
M  END
