
     RDKit          3D

 28 31  0  0  0  0  0  0  0  0999 V2000
   -5.0370   -2.7630    0.1820 C   0  0  0  0  0  0  0  0  0  0  0  0
   -3.7990   -2.0980   -0.3800 C   0  0  1  0  0  0  0  0  0  0  0  0
   -3.7980   -2.2650   -1.8850 C   0  0  0  0  0  0  0  0  0  0  0  0
   -3.8090   -0.6420    0.0340 C   0  0  0  0  0  0  0  0  0  0  0  0
   -2.4170   -0.0860    0.0520 C   0  0  0  0  0  0  0  0  0  0  0  0
   -1.3450   -0.8990   -0.1950 C   0  0  0  0  0  0  0  0  0  0  0  0
   -0.0410   -0.4380   -0.2040 C   0  0  0  0  0  0  0  0  0  0  0  0
    1.0230   -1.1760   -0.4530 C   0  0  0  0  0  0  0  0  0  0  0  0
    2.3620   -0.5500   -0.4270 C   0  0  0  0  0  0  0  0  0  0  0  0
    2.9080   -0.0190   -1.5630 C   0  0  0  0  0  0  0  0  0  0  0  0
    4.1660    0.5730   -1.5800 C   0  0  0  0  0  0  0  0  0  0  0  0
    4.9020    0.6350   -0.4150 C   0  0  0  0  0  0  0  0  0  0  0  0
    4.3470    0.0940    0.7460 C   0  0  0  0  0  0  0  0  0  0  0  0
    3.0960   -0.4890    0.7370 C   0  0  0  0  0  0  0  0  0  0  0  0
    5.3260    0.2810    1.8590 C   0  0  0  0  0  0  0  0  0  0  0  0
    6.6390    0.3630    1.1060 C   0  0  0  0  0  0  0  0  0  0  0  0
    6.2500    1.1890   -0.1030 C   0  0  0  0  0  0  0  0  0  0  0  0
    0.1020    0.8990    0.0560 C   0  0  0  0  0  0  0  0  0  0  0  0
    1.2600    1.4370    0.0750 O   0  0  0  0  0  0  0  0  0  0  0  0
   -0.9820    1.7040    0.3030 N   0  0  0  0  0  0  0  0  0  0  0  0
   -2.2470    1.2780    0.3140 C   0  0  0  0  0  0  0  0  0  0  0  0
   -3.2960    2.0220    0.5460 C   0  0  0  0  0  0  0  0  0  0  0  0
   -3.5160    3.3860    0.8390 C   0  0  0  0  0  0  0  0  0  0  0  0
   -2.8750    4.4720    1.0090 C   0  0  0  0  0  0  0  0  0  0  0  0
   -1.5870    4.7730    0.9700 F   0  0  0  0  0  0  0  0  0  0  0  0
   -3.6610    5.6110    1.3010 F   0  0  0  0  0  0  0  0  0  0  0  0
   -1.5290   -2.3500   -0.4640 C   0  0  0  0  0  0  0  0  0  0  0  0
   -2.6940   -2.7630    0.1370 O   0  0  0  0  0  0  0  0  0  0  0  0
  2  1  1  1
  2  3  1  0
  2  4  1  0
  2 28  1  0
  4  5  1  0
  5  6  2  0
  5 21  1  0
  6  7  1  0
  6 27  1  0
  7  8  2  3
  7 18  1  0
  8  9  1  0
  9 10  2  0
  9 14  1  0
 10 11  1  0
 11 12  2  0
 12 13  1  0
 12 17  1  0
 13 14  2  0
 13 15  1  0
 15 16  1  0
 16 17  1  0
 18 19  2  0
 18 20  1  0
 20 21  1  0
 21 22  2  3
 22 23  1  0
 23 24  2  3
 24 25  1  0
 24 26  1  0
 27 28  1  0
M  END
