
     RDKit          3D

 28 31  0  0  0  0  0  0  0  0999 V2000
   -3.7520   -2.6390   -0.6260 C   0  0  0  0  0  0  0  0  0  0  0  0
   -3.9400   -1.2690   -0.2170 N   0  0  0  0  0  0  0  0  0  0  0  0
   -5.0500   -0.6550   -0.2830 C   0  0  0  0  0  0  0  0  0  0  0  0
   -6.1720   -1.3390   -0.7830 O   0  0  0  0  0  0  0  0  0  0  0  0
   -5.2110    0.7260    0.1360 C   0  0  0  0  0  0  0  0  0  0  0  0
   -6.5230    1.2260    0.0810 C   0  0  0  0  0  0  0  0  0  0  0  0
   -7.4970    0.4650   -0.4690 F   0  0  0  0  0  0  0  0  0  0  0  0
   -6.8080    2.4780    0.5810 C   0  0  0  0  0  0  0  0  0  0  0  0
   -5.7660    3.1840    1.1170 C   0  0  0  0  0  0  0  0  0  0  0  0
   -6.0430    4.4280    1.6200 F   0  0  0  0  0  0  0  0  0  0  0  0
   -4.4960    2.7450    1.1850 C   0  0  0  0  0  0  0  0  0  0  0  0
   -4.1800    1.4550    0.6700 C   0  0  0  0  0  0  0  0  0  0  0  0
   -2.7610    1.1730    0.5580 C   0  0  0  0  0  0  0  0  0  0  0  0
   -2.0680    0.6010   -0.3700 C   0  0  0  0  0  0  0  0  0  0  0  0
   -0.6090    0.3920   -0.2980 C   0  0  0  0  0  0  0  0  0  0  0  0
    0.1650    0.7930    0.7640 C   0  0  0  0  0  0  0  0  0  0  0  0
    1.5470    0.5720    0.7930 C   0  0  0  0  0  0  0  0  0  0  0  0
    2.1650   -0.0570   -0.2500 C   0  0  0  0  0  0  0  0  0  0  0  0
    3.6090   -0.2890   -0.2230 C   0  0  0  0  0  0  0  0  0  0  0  0
    4.3510   -0.9070   -1.2040 C   0  0  0  0  0  0  0  0  0  0  0  0
    5.6830   -0.9250   -0.7860 C   0  0  0  0  0  0  0  0  0  0  0  0
    5.6590   -0.3040    0.4440 C   0  0  0  0  0  0  0  0  0  0  0  0
    4.4300    0.0530    0.7370 O   0  0  0  0  0  0  0  0  0  0  0  0
    7.0390   -0.2680    0.9840 C   0  0  0  0  0  0  0  0  0  0  0  0
    7.9210   -0.6210   -0.1930 C   0  0  0  0  0  0  0  0  0  0  0  0
    7.0340   -1.3510   -1.1770 C   0  0  0  0  0  0  0  0  0  0  0  0
    1.3800   -0.4550   -1.3110 C   0  0  0  0  0  0  0  0  0  0  0  0
    0.0160   -0.2480   -1.3620 C   0  0  0  0  0  0  0  0  0  0  0  0
  1  2  1  0
  2  3  2  3
  3  4  1  0
  3  5  1  0
  5  6  2  0
  5 12  1  0
  6  7  1  0
  6  8  1  0
  8  9  2  0
  9 10  1  0
  9 11  1  0
 11 12  2  0
 12 13  1  0
 13 14  2  3
 14 15  1  0
 15 16  2  0
 15 28  1  0
 16 17  1  0
 17 18  2  0
 18 19  1  0
 18 27  1  0
 19 20  2  0
 19 23  1  0
 20 21  1  0
 21 22  2  0
 21 26  1  0
 22 23  1  0
 22 24  1  0
 24 25  1  0
 25 26  1  0
 27 28  2  0
M  END
