
     RDKit          3D

 27 27  0  0  0  0  0  0  0  0999 V2000
   -1.5350   -0.4080    3.5280 N   0  0  0  0  0  0  0  0  0  0  0  0
   -1.6200   -0.6830    2.1830 O   0  0  0  0  0  0  0  0  0  0  0  0
   -1.6060    0.3400    1.2170 C   0  0  0  0  0  0  0  0  0  0  0  0
   -1.7220    1.5750    1.4870 N   0  0  0  0  0  0  0  0  0  0  0  0
   -1.6760    2.3580    0.3570 O   0  0  0  0  0  0  0  0  0  0  0  0
   -1.8280    1.5160   -0.7960 C   0  0  2  0  0  0  0  0  0  0  0  0
   -3.2970    1.6200   -1.1810 C   0  0  0  0  0  0  0  0  0  0  0  0
   -3.5780    3.0570   -1.4840 C   0  0  0  0  0  0  0  0  0  0  0  0
   -4.7170    3.4590   -1.8350 O   0  0  0  0  0  0  0  0  0  0  0  0
   -2.5810    4.0340   -1.3920 O   0  0  0  0  0  0  0  0  0  0  0  0
   -1.4600    0.1790   -0.2540 C   0  0  2  0  0  0  0  0  0  0  0  0
   -2.4150   -0.9160   -0.7150 C   0  0  0  0  0  0  0  0  0  0  0  0
   -2.0180   -2.0790   -0.0300 O   0  0  0  0  0  0  0  0  0  0  0  0
   -3.0220   -3.4320   -0.4540 P   0  0  0  0  0  0  0  0  0  0  0  0
   -2.2010   -4.8640    0.1460 O   0  0  0  0  0  0  0  0  0  0  0  0
   -4.4890   -3.2910    0.4620 O   0  0  0  0  0  0  0  0  0  0  0  0
   -0.1610   -0.2460   -0.6100 O   0  0  0  0  0  0  0  0  0  0  0  0
    0.9900    0.4740   -0.3210 C   0  0  0  0  0  0  0  0  0  0  0  0
    0.8350    1.5590    0.2910 O   0  0  0  0  0  0  0  0  0  0  0  0
    2.2860    0.0580   -0.6720 N   0  0  0  0  0  0  0  0  0  0  0  0
    3.4810    0.8320   -0.3580 C   0  0  0  0  0  0  0  0  0  0  0  0
    4.7280    0.1710   -0.8390 C   0  0  1  0  0  0  0  0  0  0  0  0
    6.1690    1.2530   -0.3780 P   0  0  0  0  0  0  0  0  0  0  0  0
    6.7350    1.2050    1.0650 O   0  0  0  0  0  0  0  0  0  0  0  0
    4.9480   -1.5150   -0.1160 P   0  0  0  0  0  0  0  0  0  0  0  0
    6.1440   -2.3500   -1.0630 O   0  0  0  0  0  0  0  0  0  0  0  0
    5.4840   -1.4560    1.5270 O   0  0  0  0  0  0  0  0  0  0  0  0
  1  2  1  0
  2  3  1  0
  3  4  2  0
  3 11  1  0
  4  5  1  0
  5  6  1  0
  6  7  1  1
  6 11  1  0
  7  8  1  0
  8  9  2  0
  8 10  1  0
 11 12  1  6
 11 17  1  0
 12 13  1  0
 13 14  1  0
 14 15  1  0
 14 16  1  0
 17 18  1  0
 18 19  2  0
 18 20  1  0
 20 21  1  0
 22 21  1  1
 22 23  1  0
 22 25  1  0
 23 24  2  0
 25 26  1  0
 25 27  1  0
M  END
