
     RDKit          3D

 28 29  0  0  0  0  0  0  0  0999 V2000
   -3.7840    2.1790    1.1320 C   0  0  0  0  0  0  0  0  0  0  0  0
   -3.4280    1.5350   -0.1960 C   0  0  2  0  0  0  0  0  0  0  0  0
   -4.6420    1.1710   -0.9500 C   0  0  0  0  0  0  0  0  0  0  0  0
   -5.0950    0.0190   -0.3090 O   0  0  0  0  0  0  0  0  0  0  0  0
   -4.0960   -0.5080    0.4200 N   0  0  0  0  0  0  0  0  0  0  0  0
   -4.0860   -2.2880    0.2140 P   0  0  0  0  0  0  0  0  0  0  0  0
   -3.8110   -2.7290   -1.4320 O   0  0  0  0  0  0  0  0  0  0  0  0
   -2.9940   -3.0550    1.2980 O   0  0  0  0  0  0  0  0  0  0  0  0
   -2.8780    0.1080    0.0340 C   0  0  2  0  0  0  0  0  0  0  0  0
   -1.8290    0.2480    1.0330 C   0  0  0  0  0  0  0  0  0  0  0  0
   -1.6930   -0.4160    2.0810 O   0  0  0  0  0  0  0  0  0  0  0  0
   -0.8350    1.2680    0.7830 N   0  0  0  0  0  0  0  0  0  0  0  0
    0.4040    1.2430    1.5100 C   0  0  0  0  0  0  0  0  0  0  0  0
    1.4620    0.4580    0.8400 C   0  0  0  0  0  0  0  0  0  0  0  0
    2.5730    0.3970    1.4290 O   0  0  0  0  0  0  0  0  0  0  0  0
    1.3120   -0.2100   -0.3830 N   0  0  0  0  0  0  0  0  0  0  0  0
    2.4500   -0.9550   -0.9360 C   0  0  0  0  0  0  0  0  0  0  0  0
    2.9280   -2.2570    0.2620 P   0  0  0  0  0  0  0  0  0  0  0  0
    2.7830   -3.8580   -0.3760 O   0  0  0  0  0  0  0  0  0  0  0  0
    4.4300   -1.9810    1.0330 O   0  0  0  0  0  0  0  0  0  0  0  0
    5.5070   -1.0000    0.1290 P   0  0  0  0  0  0  0  0  0  0  0  0
    7.0830   -1.7450    0.0340 O   0  0  0  0  0  0  0  0  0  0  0  0
    5.7210    0.4990    0.9920 O   0  0  0  0  0  0  0  0  0  0  0  0
    6.9370    0.9540    0.9000 O   0  0  0  0  0  0  0  0  0  0  0  0
    7.2130    1.4120   -0.3000 O   0  0  0  0  0  0  0  0  0  0  0  0
   -1.1720    2.2500   -0.1930 C   0  0  0  0  0  0  0  0  0  0  0  0
   -0.3380    3.1640   -0.4500 O   0  0  0  0  0  0  0  0  0  0  0  0
   -2.4150    2.2060   -0.8660 O   0  0  0  0  0  0  0  0  0  0  0  0
  2  1  1  1
  2  3  1  0
  2  9  1  0
  2 28  1  0
  3  4  1  0
  4  5  1  0
  5  6  1  0
  9  5  1  1
  6  7  1  0
  6  8  1  0
  9 10  1  0
 10 11  2  0
 10 12  1  0
 12 13  1  0
 12 26  1  0
 13 14  1  0
 14 15  2  0
 14 16  1  0
 16 17  1  0
 17 18  1  0
 18 19  1  0
 18 20  1  0
 20 21  1  0
 21 22  1  0
 21 23  1  0
 23 24  1  0
 24 25  1  0
 26 27  2  0
 26 28  1  0
M  END
