
     RDKit          3D

 28 28  0  0  0  0  0  0  0  0999 V2000
   -3.6000    2.1070    1.5390 C   0  0  0  0  0  0  0  0  0  0  0  0
   -3.3480    1.9100    0.1640 N   0  0  0  0  0  0  0  0  0  0  0  0
   -4.4690    1.8380   -0.6880 C   0  0  0  0  0  0  0  0  0  0  0  0
   -5.3370    0.6600   -0.5200 C   0  0  0  0  0  0  0  0  0  0  0  0
   -5.1930   -0.2390    0.2740 O   0  0  0  0  0  0  0  0  0  0  0  0
   -2.2350    1.1150   -0.2110 C   0  0  2  0  0  0  0  0  0  0  0  0
   -2.1740    1.0180   -1.6180 O   0  0  0  0  0  0  0  0  0  0  0  0
   -2.2370   -0.2240    0.3110 N   0  0  0  0  0  0  0  0  0  0  0  0
   -0.8620   -0.5080    0.6370 C   0  0  1  0  0  0  0  0  0  0  0  0
   -0.7710   -1.4820    1.7730 C   0  0  0  0  0  0  0  0  0  0  0  0
   -1.4390   -2.6580    1.5370 O   0  0  0  0  0  0  0  0  0  0  0  0
   -1.2790   -3.6420    0.6230 C   0  0  0  0  0  0  0  0  0  0  0  0
   -0.3480   -3.5350   -0.2100 O   0  0  0  0  0  0  0  0  0  0  0  0
   -2.1150   -4.7790    0.5710 O   0  0  0  0  0  0  0  0  0  0  0  0
    0.2450   -0.8130   -0.7770 P   0  0  0  0  0  0  0  0  0  0  0  0
    0.3770    0.5360   -1.8400 O   0  0  0  0  0  0  0  0  0  0  0  0
    1.8000   -1.3610   -0.3600 O   0  0  0  0  0  0  0  0  0  0  0  0
    2.8630   -0.2280    0.3090 P   0  0  0  0  0  0  0  0  0  0  0  0
    2.4910    1.4080    0.1210 O   0  0  0  0  0  0  0  0  0  0  0  0
    4.6370   -0.6540    0.1510 C   0  0  2  0  0  0  0  0  0  0  0  0
    4.9160   -1.1780   -1.1750 N   0  0  0  0  0  0  0  0  0  0  0  0
    4.9130   -1.7010    1.0540 O   0  0  0  0  0  0  0  0  0  0  0  0
    5.7800    0.7260    0.4910 P   0  0  0  0  0  0  0  0  0  0  0  0
    5.1910    2.2650    0.0220 O   0  0  0  0  0  0  0  0  0  0  0  0
    7.2800    0.4100   -0.3540 O   0  0  0  0  0  0  0  0  0  0  0  0
   -0.4600    0.8770    1.1630 C   0  0  0  0  0  0  0  0  0  0  0  0
    0.2030    1.1160    2.1870 O   0  0  0  0  0  0  0  0  0  0  0  0
   -1.0120    1.7260    0.2280 O   0  0  0  0  0  0  0  0  0  0  0  0
  1  2  1  0
  2  3  1  0
  2  6  1  0
  3  4  1  0
  4  5  2  0
  6  7  1  6
  6  8  1  0
  6 28  1  0
  8  9  1  0
  9 10  1  1
  9 15  1  0
  9 26  1  0
 10 11  1  0
 11 12  1  0
 12 13  2  0
 12 14  1  0
 15 16  1  0
 15 17  1  0
 17 18  1  0
 18 19  1  0
 18 20  1  0
 20 21  1  6
 20 22  1  0
 20 23  1  0
 23 24  1  0
 23 25  1  0
 26 27  2  0
 26 28  1  0
M  END
