
     RDKit          3D

 27 27  0  0  0  0  0  0  0  0999 V2000
   -3.0990    1.0390    3.4320 O   0  0  0  0  0  0  0  0  0  0  0  0
   -4.0280    0.5740    2.3070 P   0  0  0  0  0  0  0  0  0  0  0  0
   -3.4740    0.4470    0.5290 C   0  0  2  0  0  0  0  0  0  0  0  0
   -4.1450    1.4720   -0.2100 N   0  0  0  0  0  0  0  0  0  0  0  0
   -3.9310    1.5970   -1.6100 C   0  0  0  0  0  0  0  0  0  0  0  0
   -3.1730    0.8500   -2.2680 O   0  0  0  0  0  0  0  0  0  0  0  0
   -4.5930    2.5970   -2.2980 O   0  0  0  0  0  0  0  0  0  0  0  0
   -3.8050   -0.9420    0.0390 C   0  0  0  0  0  0  0  0  0  0  0  0
   -2.5970   -1.7330   -0.1010 N   0  0  0  0  0  0  0  0  0  0  0  0
   -2.1360   -2.1810    1.1990 C   0  0  0  0  0  0  0  0  0  0  0  0
   -0.9860   -1.3380    1.6990 C   0  0  0  0  0  0  0  0  0  0  0  0
   -0.9120   -0.1070    0.9420 N   0  0  0  0  0  0  0  0  0  0  0  0
    0.3750    0.4380    0.6920 C   0  0  0  0  0  0  0  0  0  0  0  0
    0.4660    1.5050    0.0370 O   0  0  0  0  0  0  0  0  0  0  0  0
    1.5490   -0.1190    1.1140 O   0  0  0  0  0  0  0  0  0  0  0  0
    2.8490    0.2970    0.9390 C   0  0  0  0  0  0  0  0  0  0  0  0
    3.3660    0.4050   -0.4530 C   0  0  1  0  0  0  0  0  0  0  0  0
    2.6980    1.2810   -1.2680 O   0  0  0  0  0  0  0  0  0  0  0  0
    5.1310    1.0460   -0.3170 P   0  0  0  0  0  0  0  0  0  0  0  0
    5.0780    2.7750   -0.3010 O   0  0  0  0  0  0  0  0  0  0  0  0
    5.7790    0.5160    1.2040 O   0  0  0  0  0  0  0  0  0  0  0  0
    3.4940   -1.2710   -1.2470 P   0  0  0  0  0  0  0  0  0  0  0  0
    2.2710   -2.3220   -0.6120 O   0  0  0  0  0  0  0  0  0  0  0  0
    3.3840   -1.1390   -2.9720 O   0  0  0  0  0  0  0  0  0  0  0  0
    4.5370   -1.4940   -3.5110 O   0  0  0  0  0  0  0  0  0  0  0  0
   -2.0030    0.6290    0.4150 C   0  0  0  0  0  0  0  0  0  0  0  0
   -1.6360    1.6170   -0.2740 O   0  0  0  0  0  0  0  0  0  0  0  0
  1  2  2  0
  2  3  1  0
  3  4  1  6
  3  8  1  0
  3 26  1  0
  4  5  1  0
  5  6  2  0
  5  7  1  0
  8  9  1  0
  9 10  1  0
 10 11  1  0
 11 12  1  0
 12 13  1  0
 12 26  1  0
 13 14  2  0
 13 15  1  0
 15 16  1  0
 16 17  1  0
 17 18  1  6
 17 19  1  0
 17 22  1  0
 19 20  1  0
 19 21  1  0
 22 23  1  0
 22 24  1  0
 24 25  1  0
 26 27  2  0
M  END
