
     RDKit          3D

 28 28  0  0  0  0  0  0  0  0999 V2000
   -2.1240   -4.6670    1.9810 O   0  0  0  0  0  0  0  0  0  0  0  0
   -0.6970   -4.1870    1.6560 P   0  0  0  0  0  0  0  0  0  0  0  0
   -0.4080   -2.5420    0.7730 C   0  0  0  0  0  0  0  0  0  0  0  0
   -1.4770   -2.2750   -0.0230 O   0  0  0  0  0  0  0  0  0  0  0  0
   -1.4750   -1.1660   -0.8050 C   0  0  0  0  0  0  0  0  0  0  0  0
   -1.3660    0.1310   -0.0860 C   0  0  1  0  0  0  0  0  0  0  0  0
   -2.4780    0.2660    0.8930 C   0  0  0  0  0  0  0  0  0  0  0  0
   -2.2980    0.4590    2.1100 O   0  0  0  0  0  0  0  0  0  0  0  0
   -3.7750    0.1720    0.4290 O   0  0  0  0  0  0  0  0  0  0  0  0
   -0.1110    0.1840    0.5970 O   0  0  0  0  0  0  0  0  0  0  0  0
    0.8020    0.6870   -0.3160 C   0  0  0  0  0  0  0  0  0  0  0  0
    2.2750    0.4810   -0.1910 C   0  0  1  0  0  0  0  0  0  0  0  0
    2.6420   -0.9060   -0.2050 N   0  0  0  0  0  0  0  0  0  0  0  0
    3.3450   -1.4490    0.9000 C   0  0  0  0  0  0  0  0  0  0  0  0
    3.6330   -0.6870    1.8820 O   0  0  0  0  0  0  0  0  0  0  0  0
    3.7530   -2.8490    0.9590 C   0  0  0  0  0  0  0  0  0  0  0  0
    3.4970   -3.6390    0.0260 O   0  0  0  0  0  0  0  0  0  0  0  0
    4.4380   -3.3390    2.0580 O   0  0  0  0  0  0  0  0  0  0  0  0
    3.1490    1.2990   -1.6200 P   0  0  0  0  0  0  0  0  0  0  0  0
    2.0170    1.6610   -2.8840 O   0  0  0  0  0  0  0  0  0  0  0  0
    3.9460    2.7590   -1.1230 O   0  0  0  0  0  0  0  0  0  0  0  0
    0.2010    1.3370   -1.2550 N   0  0  0  0  0  0  0  0  0  0  0  0
   -1.2180    1.2880   -0.9870 C   0  0  0  0  0  0  0  0  0  0  0  0
   -2.0970    2.0740   -1.4400 N   0  0  0  0  0  0  0  0  0  0  0  0
   -3.4210    2.0940   -1.2430 O   0  0  0  0  0  0  0  0  0  0  0  0
   -4.3580    3.4850   -0.7430 P   0  0  0  0  0  0  0  0  0  0  0  0
   -4.8170    3.4000    0.9230 O   0  0  0  0  0  0  0  0  0  0  0  0
   -3.5340    4.9690   -1.0990 O   0  0  0  0  0  0  0  0  0  0  0  0
  1  2  2  0
  2  3  1  0
  3  4  1  0
  4  5  1  0
  6  5  1  6
  6  7  1  0
  6 10  1  0
  6 23  1  0
  7  8  2  0
  7  9  1  0
 10 11  1  0
 11 12  1  0
 11 22  2  0
 12 13  1  6
 12 19  1  0
 13 14  1  0
 14 15  2  0
 14 16  1  0
 16 17  2  0
 16 18  1  0
 19 20  1  0
 19 21  1  0
 22 23  1  0
 23 24  2  3
 24 25  1  0
 25 26  1  0
 26 27  1  0
 26 28  1  0
M  END
