
     RDKit          3D

 28 28  0  0  0  0  0  0  0  0999 V2000
    7.6010    1.2870    3.3140 O   0  0  0  0  0  0  0  0  0  0  0  0
    6.7090    1.4300    2.0600 P   0  0  0  0  0  0  0  0  0  0  0  0
    5.3120    0.4310    1.7730 O   0  0  0  0  0  0  0  0  0  0  0  0
    5.6730   -0.6000    0.4400 P   0  0  0  0  0  0  0  0  0  0  0  0
    6.7520    0.1370   -0.6960 O   0  0  0  0  0  0  0  0  0  0  0  0
    4.2840   -1.2560   -0.3390 O   0  0  0  0  0  0  0  0  0  0  0  0
    3.2930   -0.0080   -1.0710 P   0  0  0  0  0  0  0  0  0  0  0  0
    4.3170    1.2820   -1.5360 O   0  0  0  0  0  0  0  0  0  0  0  0
    1.8980    0.4570   -0.0110 C   0  0  1  0  0  0  0  0  0  0  0  0
    1.7840    1.7430    0.3800 O   0  0  0  0  0  0  0  0  0  0  0  0
    0.6190   -0.3420   -0.2350 C   0  0  2  0  0  0  0  0  0  0  0  0
    0.0730   -0.9100    0.9220 N   0  0  0  0  0  0  0  0  0  0  0  0
   -0.6380   -0.3540    2.0180 C   0  0  0  0  0  0  0  0  0  0  0  0
   -0.1680   -0.6660    3.1760 O   0  0  0  0  0  0  0  0  0  0  0  0
   -1.7430    0.4450    1.8300 O   0  0  0  0  0  0  0  0  0  0  0  0
   -3.0210    0.1150    1.5510 C   0  0  1  0  0  0  0  0  0  0  0  0
   -3.8630    1.4280    1.5740 C   0  0  0  0  0  0  0  0  0  0  0  0
   -5.1520    0.8620    1.3430 O   0  0  0  0  0  0  0  0  0  0  0  0
   -5.8100    1.0150    2.5330 O   0  0  0  0  0  0  0  0  0  0  0  0
   -3.4040   -0.7200    0.4480 C   0  0  0  0  0  0  0  0  0  0  0  0
   -3.7640   -1.9490    0.6260 O   0  0  0  0  0  0  0  0  0  0  0  0
   -3.4150   -0.3310   -0.9230 N   0  0  0  0  0  0  0  0  0  0  0  0
   -2.7200    0.7180   -1.3930 O   0  0  0  0  0  0  0  0  0  0  0  0
   -2.0360    0.3330   -2.5670 C   0  0  0  0  0  0  0  0  0  0  0  0
   -1.6140   -1.0900   -2.3420 C   0  0  0  0  0  0  0  0  0  0  0  0
   -0.1800   -1.2350   -2.4750 N   0  0  0  0  0  0  0  0  0  0  0  0
    0.7400   -1.2360   -1.3840 C   0  0  0  0  0  0  0  0  0  0  0  0
    1.6980   -2.0940   -1.4620 O   0  0  0  0  0  0  0  0  0  0  0  0
  1  2  2  0
  2  3  1  0
  3  4  1  0
  4  5  1  0
  4  6  1  0
  6  7  1  0
  7  8  1  0
  7  9  1  0
  9 10  1  6
  9 11  1  0
 11 12  1  1
 11 27  1  0
 12 13  1  0
 13 14  2  0
 13 15  1  0
 15 16  1  0
 16 17  1  6
 16 20  1  0
 17 18  1  0
 18 19  1  0
 20 21  2  0
 20 22  1  0
 22 23  1  0
 23 24  1  0
 24 25  1  0
 25 26  1  0
 26 27  1  0
 27 28  2  0
M  END
