
     RDKit          3D

 25 27  0  0  0  0  0  0  0  0999 V2000
   -0.3610    1.1290    0.6420 N   0  0  0  0  0  0  0  0  0  0  0  0
   -0.6430   -0.2420    0.9980 C   0  0  1  0  0  0  0  0  0  0  0  0
    0.0870   -1.2240    0.1460 C   0  0  0  0  0  0  0  0  0  0  0  0
    1.4450   -1.2290    0.2180 O   0  0  0  0  0  0  0  0  0  0  0  0
    2.1230   -0.0990   -0.0850 C   0  0  0  0  0  0  0  0  0  0  0  0
    3.6270   -0.3900    0.0130 C   0  0  1  0  0  0  0  0  0  0  0  0
    4.0190   -1.3830   -0.8530 O   0  0  0  0  0  0  0  0  0  0  0  0
    4.3410    0.9050   -0.2730 C   0  0  0  0  0  0  0  0  0  0  0  0
    6.1860    0.6640   -0.1790 P   0  0  0  0  0  0  0  0  0  0  0  0
    6.6590   -0.5520   -1.3310 O   0  0  0  0  0  0  0  0  0  0  0  0
    6.9980    2.1260   -0.6000 O   0  0  0  0  0  0  0  0  0  0  0  0
   -0.0820   -0.4010    2.3010 O   0  0  0  0  0  0  0  0  0  0  0  0
   -0.7860   -1.3590    2.9000 N   0  0  0  0  0  0  0  0  0  0  0  0
   -2.0960   -1.2420    2.3860 C   0  0  0  0  0  0  0  0  0  0  0  0
   -2.0490   -0.5620    1.2170 C   0  0  0  0  0  0  0  0  0  0  0  0
   -3.2010   -0.2420    0.3880 C   0  0  0  0  0  0  0  0  0  0  0  0
   -3.0880    0.4060   -0.8100 C   0  0  0  0  0  0  0  0  0  0  0  0
   -4.2060    0.6960   -1.5720 C   0  0  0  0  0  0  0  0  0  0  0  0
   -4.3080    1.3140   -2.7540 N   0  0  0  0  0  0  0  0  0  0  0  0
   -5.5970    1.3350   -3.0410 N   0  0  0  0  0  0  0  0  0  0  0  0
   -6.3010    0.7390   -2.0550 C   0  0  0  0  0  0  0  0  0  0  0  0
   -5.3990    0.3380   -1.1280 N   0  0  0  0  0  0  0  0  0  0  0  0
   -5.4740   -0.2980    0.0550 C   0  0  0  0  0  0  0  0  0  0  0  0
   -6.6520   -0.6170    0.4290 O   0  0  0  0  0  0  0  0  0  0  0  0
   -4.4230   -0.5750    0.7790 O   0  0  0  0  0  0  0  0  0  0  0  0
  2  1  1  6
  2  3  1  0
  2 12  1  0
  2 15  1  0
  3  4  1  0
  4  5  1  0
  5  6  1  0
  6  7  1  6
  6  8  1  0
  8  9  1  0
  9 10  1  0
  9 11  1  0
 12 13  1  0
 13 14  1  0
 14 15  2  0
 15 16  1  0
 16 17  2  0
 16 25  1  0
 17 18  1  0
 18 19  2  0
 18 22  1  0
 19 20  1  0
 20 21  2  0
 21 22  1  0
 22 23  1  0
 23 24  2  0
 23 25  1  0
M  END
