
     RDKit          3D

 26 27  0  0  0  0  0  0  0  0999 V2000
    1.1060    0.3220    1.6530 O   0  0  0  0  0  0  0  0  0  0  0  0
    1.3810   -0.3390    0.6060 C   0  0  0  0  0  0  0  0  0  0  0  0
    0.3660   -1.1220    0.0000 N   0  0  0  0  0  0  0  0  0  0  0  0
   -0.7350   -0.5470   -0.3360 C   0  0  0  0  0  0  0  0  0  0  0  0
   -1.0840    0.8230   -0.1750 N   0  0  0  0  0  0  0  0  0  0  0  0
   -2.3730    0.9570   -0.2550 C   0  0  0  0  0  0  0  0  0  0  0  0
   -3.0940    2.1570   -0.1460 O   0  0  0  0  0  0  0  0  0  0  0  0
   -2.4550    3.3540    0.0670 C   0  0  0  0  0  0  0  0  0  0  0  0
   -1.2100    3.3840    0.1660 O   0  0  0  0  0  0  0  0  0  0  0  0
   -3.2460    4.6230    0.1800 C   0  0  0  0  0  0  0  0  0  0  0  0
   -4.5920    4.3330    0.0370 O   0  0  0  0  0  0  0  0  0  0  0  0
   -2.9920   -0.3050   -0.4750 N   0  0  0  0  0  0  0  0  0  0  0  0
   -1.9320   -1.1710   -0.9820 C   0  0  2  0  0  0  0  0  0  0  0  0
   -2.1190   -2.5970   -0.5570 C   0  0  2  0  0  0  0  0  0  0  0  0
   -3.3410   -3.1340   -1.2570 C   0  0  0  0  0  0  0  0  0  0  0  0
   -4.4090   -3.2970   -0.2100 C   0  0  0  0  0  0  0  0  0  0  0  0
   -3.7980   -2.9100    1.0430 N   0  0  0  0  0  0  0  0  0  0  0  0
   -2.4040   -2.7410    0.8880 C   0  0  0  0  0  0  0  0  0  0  0  0
   -1.5370   -2.7140    1.7990 O   0  0  0  0  0  0  0  0  0  0  0  0
    2.6750   -0.3090    0.0370 N   0  0  0  0  0  0  0  0  0  0  0  0
    3.6780    0.5060    0.6940 C   0  0  0  0  0  0  0  0  0  0  0  0
    5.0090    0.4330   -0.0370 C   0  0  0  0  0  0  0  0  0  0  0  0
    5.8960    1.2400    0.6640 O   0  0  0  0  0  0  0  0  0  0  0  0
    7.4700    1.2750   -0.0310 P   0  0  0  0  0  0  0  0  0  0  0  0
    8.0710   -0.3400   -0.3280 O   0  0  0  0  0  0  0  0  0  0  0  0
    8.5210    2.1080    1.0910 O   0  0  0  0  0  0  0  0  0  0  0  0
  1  2  2  0
  2  3  1  0
  2 20  1  0
  3  4  2  3
  4  5  1  0
  4 13  1  0
  5  6  2  0
  6  7  1  0
  6 12  1  0
  7  8  1  0
  8  9  2  0
  8 10  1  0
 10 11  1  0
 13 12  1  1
 13 14  1  0
 14 15  1  6
 14 18  1  0
 15 16  1  0
 16 17  1  0
 17 18  1  0
 18 19  2  0
 20 21  1  0
 21 22  1  0
 22 23  1  0
 23 24  1  0
 24 25  1  0
 24 26  1  0
M  END
