
     RDKit          3D

 16 15  0  0  0  0  0  0  0  0999 V2000
   -3.0840   -1.0850    0.0320 C   0  0  0  0  0  0  0  0  0  0  0  0
   -3.3590    0.3230    0.1030 N   0  0  1  0  0  0  0  0  0  0  0  0
   -3.7120    0.7560   -1.2410 C   0  0  0  0  0  0  0  0  0  0  0  0
   -4.5370    0.4910    0.9500 C   0  0  0  0  0  0  0  0  0  0  0  0
   -2.3140    1.1170    0.6740 C   0  0  0  0  0  0  0  0  0  0  0  0
   -0.9790    0.3900    0.7470 C   0  0  0  0  0  0  0  0  0  0  0  0
   -0.7430   -0.1060   -0.5150 O   0  0  0  0  0  0  0  0  0  0  0  0
    0.7200   -0.8790   -0.7090 P   0  0  2  0  0  0  0  0  0  0  0  0
    0.8110   -1.3160   -2.1640 O   0  0  0  0  0  0  0  0  0  0  0  0
    0.8870   -2.2620    0.2270 O   0  0  0  0  0  0  0  0  0  0  0  0
    1.9580    0.2160   -0.3230 O   0  0  0  0  0  0  0  0  0  0  0  0
    3.0840   -0.5660   -0.0400 C   0  0  0  0  0  0  0  0  0  0  0  0
    4.2440    0.2650    0.4320 C   0  0  2  0  0  0  0  0  0  0  0  0
    3.9490    1.5950    0.1500 O   0  0  0  0  0  0  0  0  0  0  0  0
    5.4820   -0.2110   -0.2970 C   0  0  0  0  0  0  0  0  0  0  0  0
    6.1620    0.8630   -0.8710 O   0  0  0  0  0  0  0  0  0  0  0  0
  2  1  1  6
  2  3  1  0
  2  4  1  0
  2  5  1  0
  5  6  1  0
  6  7  1  0
  7  8  1  0
  8  9  2  0
  8 10  1  1
  8 11  1  0
 11 12  1  0
 12 13  1  0
 13 14  1  6
 13 15  1  0
 15 16  1  0
M  CHG  1   2   1
M  END
