
     RDKit          3D

 25 27  0  0  0  0  0  0  0  0999 V2000
    6.0740   -0.9820   -3.2920 O   0  0  0  0  0  0  0  0  0  0  0  0
    6.3450   -1.3960   -1.6550 P   0  0  0  0  0  0  0  0  0  0  0  0
    7.6270   -0.4140   -1.0320 O   0  0  0  0  0  0  0  0  0  0  0  0
    4.8860   -1.1510   -0.6270 N   0  0  0  0  0  0  0  0  0  0  0  0
    4.8230   -0.0490    0.2510 C   0  0  0  0  0  0  0  0  0  0  0  0
    3.7100    0.3870    0.7950 C   0  0  0  0  0  0  0  0  0  0  0  0
    3.8530    1.5740    1.7040 C   0  0  0  0  0  0  0  0  0  0  0  0
    2.8230    2.4660    1.5290 O   0  0  0  0  0  0  0  0  0  0  0  0
    1.6920    1.9420    1.1560 O   0  0  0  0  0  0  0  0  0  0  0  0
    1.1900    0.9690    2.0140 C   0  0  0  0  0  0  0  0  0  0  0  0
    1.3000   -0.3720    1.3170 C   0  0  1  0  0  0  0  0  0  0  0  0
    0.1200   -0.6890    0.5080 C   0  0  0  0  0  0  0  0  0  0  0  0
    0.0730   -1.6550   -0.4380 N   0  0  0  0  0  0  0  0  0  0  0  0
   -1.1330   -1.6730   -0.9850 N   0  0  0  0  0  0  0  0  0  0  0  0
   -1.8880   -0.7240   -0.4100 C   0  0  0  0  0  0  0  0  0  0  0  0
   -3.2810   -0.4300   -0.7640 C   0  0  1  0  0  0  0  0  0  0  0  0
   -3.5150   -0.9520   -2.0510 O   0  0  0  0  0  0  0  0  0  0  0  0
   -4.2190   -0.9590    0.2710 C   0  0  0  0  0  0  0  0  0  0  0  0
   -4.8750    0.0690    0.9240 O   0  0  0  0  0  0  0  0  0  0  0  0
   -5.9640    0.5040    0.2180 C   0  0  0  0  0  0  0  0  0  0  0  0
   -5.7830    0.7550   -1.2330 C   0  0  0  0  0  0  0  0  0  0  0  0
   -4.6250    1.3940   -1.5990 O   0  0  0  0  0  0  0  0  0  0  0  0
   -3.5100    1.0670   -0.8940 C   0  0  0  0  0  0  0  0  0  0  0  0
   -1.0890   -0.1360    0.5040 N   0  0  0  0  0  0  0  0  0  0  0  0
    2.5000   -0.2820    0.4830 N   0  0  0  0  0  0  0  0  0  0  0  0
  1  2  1  0
  2  3  1  0
  2  4  1  0
  4  5  1  0
  5  6  2  3
  6  7  1  0
  6 25  1  0
  7  8  1  0
  8  9  1  0
  9 10  1  0
 10 11  1  0
 11 12  1  6
 11 25  1  0
 12 13  2  0
 12 24  1  0
 13 14  1  0
 14 15  2  0
 15 16  1  0
 15 24  1  0
 16 17  1  6
 16 18  1  0
 16 23  1  0
 18 19  1  0
 19 20  1  0
 20 21  1  0
 21 22  1  0
 22 23  1  0
M  END
