
     RDKit          3D

 11 11  0  0  0  0  0  0  0  0999 V2000
   -1.6750   -2.3680   -0.4070 C   0  0  0  0  0  0  0  0  0  0  0  0
   -0.5250   -1.5850   -0.3980 O   0  0  0  0  0  0  0  0  0  0  0  0
   -0.5080   -0.2090   -0.3020 C   0  0  0  0  0  0  0  0  0  0  0  0
   -1.6710    0.5170   -0.2030 C   0  0  0  0  0  0  0  0  0  0  0  0
   -1.5670    1.8900   -0.1100 C   0  0  0  0  0  0  0  0  0  0  0  0
   -0.3640    2.5630   -0.1110 C   0  0  0  0  0  0  0  0  0  0  0  0
    0.7940    1.8070   -0.2120 C   0  0  0  0  0  0  0  0  0  0  0  0
    0.7300    0.4310   -0.3070 C   0  0  0  0  0  0  0  0  0  0  0  0
    2.2540   -0.5850   -0.4410 P   0  0  0  0  0  0  0  0  0  0  0  0
    3.6390    0.3570   -0.0380 O   0  0  0  0  0  0  0  0  0  0  0  0
    2.1400   -2.0370    0.4780 O   0  0  0  0  0  0  0  0  0  0  0  0
  1  2  1  0
  2  3  1  0
  3  4  2  0
  3  8  1  0
  4  5  1  0
  5  6  2  0
  6  7  1  0
  7  8  2  0
  8  9  1  0
  9 10  1  0
  9 11  1  0
M  END
