
     RDKit          3D

 11 11  0  0  0  0  0  0  0  0999 V2000
    5.2600    1.2340    0.2890 O   0  0  0  0  0  0  0  0  0  0  0  0
    3.9200    0.9340   -0.3920 P   0  0  0  0  0  0  0  0  0  0  0  0
    2.7550   -0.4080    0.2160 C   0  0  0  0  0  0  0  0  0  0  0  0
    1.4570    0.0410   -0.0230 O   0  0  0  0  0  0  0  0  0  0  0  0
    0.2980   -0.6410    0.2740 C   0  0  0  0  0  0  0  0  0  0  0  0
    0.4150   -1.7690    0.8080 O   0  0  0  0  0  0  0  0  0  0  0  0
   -1.0310   -0.0630   -0.0260 C   0  0  0  0  0  0  0  0  0  0  0  0
   -2.2520   -0.6510    0.2260 C   0  0  0  0  0  0  0  0  0  0  0  0
   -3.2210    0.2140   -0.2020 C   0  0  0  0  0  0  0  0  0  0  0  0
   -2.5660    1.3170   -0.7070 C   0  0  0  0  0  0  0  0  0  0  0  0
   -1.2810    1.0980   -0.5770 O   0  0  0  0  0  0  0  0  0  0  0  0
  1  2  2  0
  2  3  1  0
  3  4  1  0
  4  5  1  0
  5  6  2  0
  5  7  1  0
  7  8  2  0
  7 11  1  0
  8  9  1  0
  9 10  2  0
 10 11  1  0
M  END
