
     RDKit          3D

 11 10  0  0  0  0  0  0  0  0999 V2000
   -0.2220    2.4330    1.0160 O   0  0  0  0  0  0  0  0  0  0  0  0
   -1.7610    2.3160    0.7640 P   0  0  0  0  0  0  0  0  0  0  0  0
   -2.6000    0.6640    0.6290 C   0  0  0  0  0  0  0  0  0  0  0  0
   -2.3330    0.0480   -0.7200 C   0  0  0  0  0  0  0  0  0  0  0  0
   -0.8760   -0.1730   -0.9810 C   0  0  0  0  0  0  0  0  0  0  0  0
   -0.2290   -1.0930    0.0260 C   0  0  0  0  0  0  0  0  0  0  0  0
    1.2370   -1.2180   -0.3680 C   0  0  0  0  0  0  0  0  0  0  0  0
    1.8330    0.0720   -0.3380 O   0  0  0  0  0  0  0  0  0  0  0  0
    3.1630    0.2400   -0.6550 C   0  0  0  0  0  0  0  0  0  0  0  0
    3.8270   -0.7940   -0.9730 O   0  0  0  0  0  0  0  0  0  0  0  0
    3.7920    1.4980   -0.6380 O   0  0  0  0  0  0  0  0  0  0  0  0
  1  2  2  0
  2  3  1  0
  3  4  1  0
  4  5  1  0
  5  6  1  0
  6  7  1  0
  7  8  1  0
  8  9  1  0
  9 10  2  0
  9 11  1  0
M  END
