
     RDKit          3D

 13 12  0  0  0  0  0  0  0  0999 V2000
    3.6540    1.3720   -1.0570 C   0  0  0  0  0  0  0  0  0  0  0  0
    2.5430    0.8540   -0.1640 C   0  0  0  0  0  0  0  0  0  0  0  0
    2.3320   -0.4710   -0.5090 O   0  0  0  0  0  0  0  0  0  0  0  0
    1.1300   -1.1040    0.4870 P   0  0  2  0  0  0  0  0  0  0  0  0
    1.5530   -0.8840    1.9220 O   0  0  0  0  0  0  0  0  0  0  0  0
    0.8430   -2.7270    0.1570 O   0  0  0  0  0  0  0  0  0  0  0  0
   -0.3930   -0.1940    0.1480 C   0  0  0  0  0  0  0  0  0  0  0  0
   -0.4180    0.9790    0.4960 O   0  0  0  0  0  0  0  0  0  0  0  0
   -1.4920   -0.9030   -0.5080 C   0  0  0  0  0  0  0  0  0  0  0  0
   -2.8640   -0.6340    0.0050 C   0  0  0  0  0  0  0  0  0  0  0  0
   -3.3500    0.7170   -0.0730 C   0  0  0  0  0  0  0  0  0  0  0  0
   -2.6950    1.7020    0.3030 O   0  0  0  0  0  0  0  0  0  0  0  0
   -4.6430    0.9570   -0.6040 O   0  0  0  0  0  0  0  0  0  0  0  0
  1  2  1  0
  2  3  1  0
  3  4  1  0
  4  5  2  0
  4  6  1  6
  4  7  1  0
  7  8  2  0
  7  9  1  0
  9 10  1  0
 10 11  1  0
 11 12  2  0
 11 13  1  0
M  END
