
     RDKit          3D

 29 31  0  0  0  0  0  0  0  0999 V2000
    0.0420    4.7460    0.5600 C   0  0  0  0  0  0  0  0  0  0  0  0
   -1.1890    4.3970    0.6280 C   0  0  0  0  0  0  0  0  0  0  0  0
   -2.0000    3.2430    0.4950 C   0  0  0  0  0  0  0  0  0  0  0  0
   -3.3420    3.4960    0.7090 C   0  0  0  0  0  0  0  0  0  0  0  0
   -3.8240    4.8170    1.0320 C   0  0  0  0  0  0  0  0  0  0  0  0
   -1.6750    1.8830    0.2090 C   0  0  0  0  0  0  0  0  0  0  0  0
   -0.6230    1.2120   -0.0630 C   0  0  0  0  0  0  0  0  0  0  0  0
    0.7890    1.6170   -0.2140 C   0  0  0  0  0  0  0  0  0  0  0  0
    1.5410    0.4290   -0.8650 C   0  0  1  0  0  0  0  0  0  0  0  0
    2.3800    1.0930   -1.9680 C   0  0  0  0  0  0  0  0  0  0  0  0
    2.4190   -0.1340    0.1710 C   0  0  1  0  0  0  0  0  0  0  0  0
    3.1060   -1.2890   -0.2200 O   0  0  0  0  0  0  0  0  0  0  0  0
    3.5670    0.8820    0.3850 C   0  0  0  0  0  0  0  0  0  0  0  0
    4.1580    0.4500    1.6960 C   0  0  0  0  0  0  0  0  0  0  0  0
    2.9690    0.1070    2.5240 C   0  0  0  0  0  0  0  0  0  0  0  0
    1.9000   -0.3350    1.5330 C   0  0  0  0  0  0  0  0  0  0  0  0
    0.4140   -0.3630   -1.3790 C   0  0  1  0  0  0  0  0  0  0  0  0
    0.5770   -1.5450   -2.1980 C   0  0  2  0  0  0  0  0  0  0  0  0
    1.2730   -1.1680   -3.5230 C   0  0  0  0  0  0  0  0  0  0  0  0
   -0.7710   -2.0590   -2.6430 C   0  0  0  0  0  0  0  0  0  0  0  0
   -0.5220   -0.3000   -0.2530 C   0  0  0  0  0  0  0  0  0  0  0  0
   -1.1670   -1.1140    0.5220 C   0  0  0  0  0  0  0  0  0  0  0  0
   -2.0720   -0.8240    1.6730 C   0  0  0  0  0  0  0  0  0  0  0  0
   -3.2200   -1.7840    1.4020 C   0  0  0  0  0  0  0  0  0  0  0  0
   -2.5980   -2.9440    0.6710 C   0  0  0  0  0  0  0  0  0  0  0  0
   -3.2690   -4.0100    0.3070 C   0  0  0  0  0  0  0  0  0  0  0  0
   -1.1980   -2.5980    0.5050 C   0  0  0  0  0  0  0  0  0  0  0  0
   -0.1970   -3.4040    0.3980 C   0  0  0  0  0  0  0  0  0  0  0  0
   -0.3250   -4.8820    0.3900 C   0  0  0  0  0  0  0  0  0  0  0  0
  1  2  2  0
  2  3  1  0
  3  4  2  3
  3  6  1  0
  4  5  1  0
  6  7  2  3
  7  8  1  0
  7 21  1  0
  8  9  1  0
  9 10  1  6
  9 11  1  0
  9 17  1  0
 11 12  1  6
 11 13  1  0
 11 16  1  0
 13 14  1  0
 14 15  1  0
 15 16  1  0
 17 18  1  0
 17 21  1  1
 18 19  1  6
 18 20  1  0
 21 22  2  3
 22 23  1  0
 22 27  1  0
 23 24  1  0
 24 25  1  0
 25 26  2  0
 25 27  1  0
 27 28  2  3
 28 29  1  0
M  END
