
     RDKit          3D

 29 31  0  0  0  0  0  0  0  0999 V2000
   -2.7880   -3.4430    1.5670 C   0  0  0  0  0  0  0  0  0  0  0  0
   -3.3180   -2.9680    0.2430 C   0  0  0  0  0  0  0  0  0  0  0  0
   -2.6400   -1.7990   -0.2520 N   0  0  0  0  0  0  0  0  0  0  0  0
   -1.2600   -2.0630   -0.6030 C   0  0  1  0  0  0  0  0  0  0  0  0
   -1.3180   -3.0880   -1.6770 C   0  0  0  0  0  0  0  0  0  0  0  0
   -0.3790   -3.0250   -2.8070 C   0  0  0  0  0  0  0  0  0  0  0  0
   -0.1900   -1.5820   -3.1930 C   0  0  0  0  0  0  0  0  0  0  0  0
    0.5040   -0.9860   -1.9340 C   0  0  0  0  0  0  0  0  0  0  0  0
   -0.5590   -0.7740   -0.9000 C   0  0  2  0  0  0  0  0  0  0  0  0
   -0.0410   -0.0410    0.2820 C   0  0  1  0  0  0  0  0  0  0  0  0
    0.8000    1.1640   -0.0710 C   0  0  0  0  0  0  0  0  0  0  0  0
    2.0000    0.9140   -0.7390 O   0  0  0  0  0  0  0  0  0  0  0  0
    2.9540    0.2800    0.0470 C   0  0  1  0  0  0  0  0  0  0  0  0
    3.6020   -0.8300   -0.6850 C   0  0  0  0  0  0  0  0  0  0  0  0
    5.0770   -0.7500   -0.4870 C   0  0  0  0  0  0  0  0  0  0  0  0
    5.2740    0.3480    0.5020 C   0  0  1  0  0  0  0  0  0  0  0  0
    5.2260   -0.1420    1.9450 C   0  0  0  0  0  0  0  0  0  0  0  0
    6.6220    1.0310    0.3360 C   0  0  0  0  0  0  0  0  0  0  0  0
    4.1350    1.2790    0.2690 C   0  0  0  0  0  0  0  0  0  0  0  0
   -0.9830    0.3140    1.3990 C   0  0  0  0  0  0  0  0  0  0  0  0
   -2.1170    1.1530    1.2220 C   0  0  0  0  0  0  0  0  0  0  0  0
   -3.3560    0.6310    1.4740 C   0  0  0  0  0  0  0  0  0  0  0  0
   -4.7120    1.1590    1.3990 C   0  0  0  0  0  0  0  0  0  0  0  0
   -5.2290    2.2080    0.7790 C   0  0  0  0  0  0  0  0  0  0  0  0
   -4.9070    3.3460   -0.0850 C   0  0  0  0  0  0  0  0  0  0  0  0
   -3.6440    3.2070   -0.8980 C   0  0  0  0  0  0  0  0  0  0  0  0
   -2.4440    3.3650    0.0150 C   0  0  0  0  0  0  0  0  0  0  0  0
   -1.8090    2.5550    0.8800 C   0  0  0  0  0  0  0  0  0  0  0  0
   -0.7290    3.1880    1.6570 C   0  0  0  0  0  0  0  0  0  0  0  0
  1  2  1  0
  2  3  1  0
  4  3  1  6
  4  5  1  0
  4  9  1  0
  5  6  1  0
  6  7  1  0
  7  8  1  0
  9  8  1  6
  9 10  1  0
 10 11  1  6
 10 20  1  0
 11 12  1  0
 13 12  1  6
 13 14  1  0
 13 19  1  0
 14 15  1  0
 15 16  1  0
 16 17  1  1
 16 18  1  0
 16 19  1  0
 20 21  1  0
 21 22  2  0
 21 28  1  0
 22 23  1  0
 23 24  2  0
 24 25  1  0
 25 26  1  0
 26 27  1  0
 27 28  2  0
 28 29  1  0
M  END
