
     RDKit          3D

 29 32  0  0  0  0  0  0  0  0999 V2000
   -2.0260   -3.4980   -2.4250 C   0  0  0  0  0  0  0  0  0  0  0  0
   -2.4110   -3.0560   -1.0750 C   0  0  0  0  0  0  0  0  0  0  0  0
   -2.8890   -3.9630   -0.1690 C   0  0  0  0  0  0  0  0  0  0  0  0
   -3.2460   -3.5280    1.0800 C   0  0  0  0  0  0  0  0  0  0  0  0
   -3.1480   -2.1880    1.4870 C   0  0  0  0  0  0  0  0  0  0  0  0
   -3.5500   -1.7670    2.8210 C   0  0  0  0  0  0  0  0  0  0  0  0
   -2.6680   -1.2790    0.5790 C   0  0  0  0  0  0  0  0  0  0  0  0
   -2.5500    0.1490    0.9370 C   0  0  1  0  0  0  0  0  0  0  0  0
   -2.2810    0.4200    2.2460 O   0  0  0  0  0  0  0  0  0  0  0  0
   -1.7360    0.9650   -0.0330 C   0  0  2  0  0  0  0  0  0  0  0  0
   -0.3440    0.5430   -0.1990 C   0  0  0  0  0  0  0  0  0  0  0  0
    0.3620    0.0240    0.8650 C   0  0  0  0  0  0  0  0  0  0  0  0
    1.6740   -0.3440    0.6300 C   0  0  0  0  0  0  0  0  0  0  0  0
    2.2790   -0.2090   -0.6070 C   0  0  0  0  0  0  0  0  0  0  0  0
    3.6830   -0.6250   -0.8250 C   0  0  0  0  0  0  0  0  0  0  0  0
    4.2530   -1.1890    0.4580 C   0  0  0  0  0  0  0  0  0  0  0  0
    5.6660   -1.6320    0.2840 C   0  0  2  0  0  0  0  0  0  0  0  0
    6.7250   -0.6590   -0.1330 C   0  0  0  0  0  0  0  0  0  0  0  0
    6.2920   -1.7310   -1.0570 C   0  0  0  0  0  0  0  0  0  0  0  0
    1.5670    0.3120   -1.6670 C   0  0  0  0  0  0  0  0  0  0  0  0
    2.2260    0.4510   -2.9910 C   0  0  0  0  0  0  0  0  0  0  0  0
    0.2560    0.6800   -1.4320 C   0  0  0  0  0  0  0  0  0  0  0  0
   -1.7020    2.4420    0.2890 C   0  0  2  0  0  0  0  0  0  0  0  0
   -1.1270    2.8140    1.6060 C   0  0  0  0  0  0  0  0  0  0  0  0
   -0.8960    4.3150    1.5300 C   0  0  0  0  0  0  0  0  0  0  0  0
   -1.6600    5.0660    0.7660 C   0  0  0  0  0  0  0  0  0  0  0  0
   -2.7840    4.5870   -0.0760 C   0  0  0  0  0  0  0  0  0  0  0  0
   -3.0610    3.1060    0.1680 C   0  0  0  0  0  0  0  0  0  0  0  0
   -2.3040   -1.7330   -0.7020 C   0  0  0  0  0  0  0  0  0  0  0  0
  1  2  1  0
  2  3  2  0
  2 29  1  0
  3  4  1  0
  4  5  2  0
  5  6  1  0
  5  7  1  0
  7  8  1  0
  7 29  2  0
  8  9  1  1
  8 10  1  0
 10 11  1  1
 10 23  1  0
 11 12  2  0
 11 22  1  0
 12 13  1  0
 13 14  2  0
 14 15  1  0
 14 20  1  0
 15 16  1  0
 17 16  1  6
 17 18  1  0
 17 19  1  0
 18 19  1  0
 20 21  1  0
 20 22  2  0
 23 24  1  1
 23 28  1  0
 24 25  1  0
 25 26  2  0
 26 27  1  0
 27 28  1  0
M  END
