
     RDKit          3D

 28 28  0  0  0  0  0  0  0  0999 V2000
    6.2190    2.2420    0.0150 N   0  0  0  0  0  0  0  0  0  0  0  0
    5.8830    0.9620    0.3730 O   0  0  0  0  0  0  0  0  0  0  0  0
    6.6760   -0.1480    0.0720 C   0  0  0  0  0  0  0  0  0  0  0  0
    7.7420    0.0300   -0.5520 O   0  0  0  0  0  0  0  0  0  0  0  0
    6.2230   -1.4940    0.5060 C   0  0  0  0  0  0  0  0  0  0  0  0
    4.6600   -1.4300    1.3790 S   0  0  0  0  0  0  0  0  0  0  0  0
    3.3150   -0.9340    0.3000 C   0  0  0  0  0  0  0  0  0  0  0  0
    3.6020   -0.7240   -0.9050 O   0  0  0  0  0  0  0  0  0  0  0  0
    1.9940   -0.7860    0.7840 N   0  0  0  0  0  0  0  0  0  0  0  0
    0.9560   -0.4030   -0.0590 N   0  0  0  0  0  0  0  0  0  0  0  0
   -0.3380   -1.0030    0.0070 C   0  0  0  0  0  0  0  0  0  0  0  0
   -0.4410   -1.9090    0.8900 O   0  0  0  0  0  0  0  0  0  0  0  0
   -1.4560   -0.6260   -0.8720 C   0  0  1  0  0  0  0  0  0  0  0  0
   -1.9330   -1.9690   -1.3440 N   0  0  0  0  0  0  0  0  0  0  0  0
   -2.3740   -2.7110   -0.3630 O   0  0  0  0  0  0  0  0  0  0  0  0
   -2.6160    0.0660   -0.2650 C   0  0  0  0  0  0  0  0  0  0  0  0
   -3.8750   -0.4500   -0.6260 C   0  0  0  0  0  0  0  0  0  0  0  0
   -5.0060    0.1310   -0.1250 C   0  0  0  0  0  0  0  0  0  0  0  0
   -6.3580   -0.3970   -0.4940 C   0  0  0  0  0  0  0  0  0  0  0  0
   -6.7040   -1.3640    0.4250 F   0  0  0  0  0  0  0  0  0  0  0  0
   -4.9660    1.2110    0.7270 C   0  0  0  0  0  0  0  0  0  0  0  0
   -3.7180    1.6820    1.0540 C   0  0  0  0  0  0  0  0  0  0  0  0
   -3.6170    2.7620    1.9050 F   0  0  0  0  0  0  0  0  0  0  0  0
   -2.5320    1.1350    0.5780 C   0  0  0  0  0  0  0  0  0  0  0  0
   -1.2520    1.7360    1.0160 C   0  0  1  0  0  0  0  0  0  0  0  0
   -1.5830    2.8630    1.8140 F   0  0  0  0  0  0  0  0  0  0  0  0
   -0.6210    0.9160    1.9380 F   0  0  0  0  0  0  0  0  0  0  0  0
   -0.4750    2.2440    0.0350 F   0  0  0  0  0  0  0  0  0  0  0  0
  1  2  1  0
  2  3  1  0
  3  4  2  0
  3  5  1  0
  5  6  1  0
  6  7  1  0
  7  8  2  0
  7  9  1  0
  9 10  1  0
 10 11  1  0
 11 12  2  0
 11 13  1  0
 13 14  1  1
 13 16  1  0
 14 15  1  0
 16 17  2  0
 16 24  1  0
 17 18  1  0
 18 19  1  0
 18 21  2  0
 19 20  1  0
 21 22  1  0
 22 23  1  0
 22 24  2  0
 24 25  1  0
 25 26  1  1
 25 27  1  0
 25 28  1  0
M  CHG  1  15  -1
M  END
