
     RDKit          3D

 29 31  0  0  0  0  0  0  0  0999 V2000
   -4.3630   -4.8950    1.0340 C   0  0  0  0  0  0  0  0  0  0  0  0
   -4.4180   -3.7110    0.3900 C   0  0  0  0  0  0  0  0  0  0  0  0
   -3.4860   -2.6590    0.7360 C   0  0  0  0  0  0  0  0  0  0  0  0
   -3.4550   -1.4570    0.1090 C   0  0  0  0  0  0  0  0  0  0  0  0
   -2.4810   -0.4800    0.5370 C   0  0  0  0  0  0  0  0  0  0  0  0
   -1.4420   -0.0040   -0.4500 C   0  0  2  0  0  0  0  0  0  0  0  0
   -2.0960    0.6980   -1.5890 C   0  0  0  0  0  0  0  0  0  0  0  0
   -0.8210   -1.2700   -1.0900 C   0  0  0  0  0  0  0  0  0  0  0  0
    0.4840   -1.6580   -0.4750 C   0  0  0  0  0  0  0  0  0  0  0  0
    1.3800   -0.4540   -0.6960 C   0  0  0  0  0  0  0  0  0  0  0  0
    2.5910   -0.6620   -1.2810 O   0  0  0  0  0  0  0  0  0  0  0  0
    3.3300   -1.8440   -1.2960 C   0  0  1  0  0  0  0  0  0  0  0  0
    4.6060   -1.5820   -2.0660 C   0  0  0  0  0  0  0  0  0  0  0  0
    5.7790   -1.3280   -1.1490 C   0  0  0  0  0  0  0  0  0  0  0  0
    5.3900   -0.3460   -0.0540 C   0  0  2  0  0  0  0  0  0  0  0  0
    6.6160    0.0310    0.7370 C   0  0  0  0  0  0  0  0  0  0  0  0
    4.3890   -1.0590    0.8450 C   0  0  0  0  0  0  0  0  0  0  0  0
    3.7000   -2.1910    0.1290 C   0  0  0  0  0  0  0  0  0  0  0  0
    0.9280    0.7240   -0.3050 C   0  0  0  0  0  0  0  0  0  0  0  0
    1.7230    1.9260   -0.4820 C   0  0  0  0  0  0  0  0  0  0  0  0
   -0.4200    0.7440    0.3290 C   0  0  1  0  0  0  0  0  0  0  0  0
   -0.7650    2.0660    0.8890 C   0  0  0  0  0  0  0  0  0  0  0  0
   -1.1310    3.1770   -0.0120 C   0  0  0  0  0  0  0  0  0  0  0  0
   -1.4030    4.4610    0.7850 C   0  0  0  0  0  0  0  0  0  0  0  0
   -2.5160    4.3290    1.7630 C   0  0  0  0  0  0  0  0  0  0  0  0
   -2.6500    5.6930    2.4560 C   0  0  0  0  0  0  0  0  0  0  0  0
   -4.4430   -1.3050   -0.9170 C   0  0  0  0  0  0  0  0  0  0  0  0
   -5.3360   -2.2130   -1.2750 C   0  0  0  0  0  0  0  0  0  0  0  0
   -5.4370   -3.5320   -0.6520 C   0  0  0  0  0  0  0  0  0  0  0  0
  1  2  2  0
  2  3  1  0
  2 29  1  0
  3  4  2  0
  4  5  1  0
  4 27  1  0
  5  6  1  0
  6  7  1  6
  6  8  1  0
  6 21  1  0
  8  9  1  0
  9 10  1  0
 10 11  1  0
 10 19  2  0
 12 11  1  1
 12 13  1  0
 12 18  1  0
 13 14  1  0
 14 15  1  0
 15 16  1  1
 15 17  1  0
 17 18  1  0
 19 20  1  0
 19 21  1  0
 21 22  1  6
 22 23  1  0
 23 24  1  0
 24 25  1  0
 25 26  1  0
 27 28  2  0
 28 29  1  0
M  END
