
     RDKit          3D

 15 15  0  0  0  0  0  0  0  0999 V2000
    2.5320   -2.5330    2.2500 O   0  0  0  0  0  0  0  0  0  0  0  0
    2.0760   -2.4420    0.7870 P   0  0  0  0  0  0  0  0  0  0  0  0
    1.9130   -0.9260    0.0030 O   0  0  0  0  0  0  0  0  0  0  0  0
    1.0170   -0.0680    0.6560 C   0  0  1  0  0  0  0  0  0  0  0  0
    1.6640    1.0800    1.1130 O   0  0  0  0  0  0  0  0  0  0  0  0
    1.6840    2.3010    0.5000 C   0  0  0  0  0  0  0  0  0  0  0  0
    2.5040    3.2270    0.8110 O   0  0  0  0  0  0  0  0  0  0  0  0
    0.7720    2.5540   -0.5130 O   0  0  0  0  0  0  0  0  0  0  0  0
   -0.1160    1.5500   -0.8490 C   0  0  0  0  0  0  0  0  0  0  0  0
   -0.9420    1.7940   -1.7640 O   0  0  0  0  0  0  0  0  0  0  0  0
   -0.1730    0.2170   -0.2210 C   0  0  2  0  0  0  0  0  0  0  0  0
   -1.3980    0.0210    0.4740 O   0  0  0  0  0  0  0  0  0  0  0  0
   -2.3290   -0.9350    0.1190 C   0  0  0  0  0  0  0  0  0  0  0  0
   -2.0300   -1.6510   -0.8900 O   0  0  0  0  0  0  0  0  0  0  0  0
   -3.5270   -1.1160    0.8120 O   0  0  0  0  0  0  0  0  0  0  0  0
  1  2  2  0
  2  3  1  0
  4  3  1  6
  4  5  1  0
  4 11  1  0
  5  6  1  0
  6  7  2  0
  6  8  1  0
  8  9  1  0
  9 10  2  0
  9 11  1  0
 11 12  1  1
 12 13  1  0
 13 14  2  0
 13 15  1  0
M  END
