
     RDKit          3D

 10  9  0  0  0  0  0  0  0  0999 V2000
    3.4810   -1.1400    0.1080 C   0  0  0  0  0  0  0  0  0  0  0  0
    2.1560   -1.3040   -0.3290 O   0  0  0  0  0  0  0  0  0  0  0  0
    1.1640   -0.3470   -0.1930 C   0  0  0  0  0  0  0  0  0  0  0  0
    1.5090    0.7300    0.3630 O   0  0  0  0  0  0  0  0  0  0  0  0
   -0.1390   -0.5340   -0.6340 O   0  0  0  0  0  0  0  0  0  0  0  0
   -1.3370    0.7090   -0.4340 P   0  0  0  0  0  0  0  0  0  0  0  0
   -2.4630    0.2110    0.7680 O   0  0  0  0  0  0  0  0  0  0  0  0
   -3.2860   -0.8110    0.2850 C   0  0  0  0  0  0  0  0  0  0  0  0
   -0.5550    2.1750    0.0470 O   0  0  0  0  0  0  0  0  0  0  0  0
   -1.1110    3.1910   -0.6040 O   0  0  0  0  0  0  0  0  0  0  0  0
  1  2  1  0
  2  3  1  0
  3  4  2  0
  3  5  1  0
  5  6  1  0
  6  7  1  0
  6  9  1  0
  7  8  1  0
  9 10  1  0
M  END
