
     RDKit          3D

 10 10  0  0  0  0  0  0  0  0999 V2000
    0.5370    0.8590   -2.2680 O   0  0  0  0  0  0  0  0  0  0  0  0
    1.0860    0.5480   -1.1900 C   0  0  0  0  0  0  0  0  0  0  0  0
    2.4530    0.5260   -0.8710 O   0  0  0  0  0  0  0  0  0  0  0  0
    2.5140   -0.0150    0.4530 C   0  0  0  0  0  0  0  0  0  0  0  0
    1.3210    0.4910    1.0220 O   0  0  0  0  0  0  0  0  0  0  0  0
    0.4080    0.1100    0.0600 C   0  0  1  0  0  0  0  0  0  0  0  0
   -0.8110    0.7240    0.1520 O   0  0  0  0  0  0  0  0  0  0  0  0
   -2.1380   -0.3640    0.2970 P   0  0  0  0  0  0  0  0  0  0  0  0
   -3.0300   -0.3930   -1.2050 O   0  0  0  0  0  0  0  0  0  0  0  0
   -3.2320    0.0620    1.5540 O   0  0  0  0  0  0  0  0  0  0  0  0
  1  2  2  0
  2  3  1  0
  2  6  1  0
  3  4  1  0
  4  5  1  0
  5  6  1  0
  6  7  1  1
  7  8  1  0
  8  9  1  0
  8 10  1  0
M  END
