
     RDKit          3D

 31 33  0  0  0  0  0  0  0  0999 V2000
    6.8110    2.1230   -0.3390 C   0  0  0  0  0  0  0  0  0  0  0  0
    6.6000    0.7230    0.0590 N   0  0  0  0  0  0  0  0  0  0  0  0
    7.6690    0.0350    0.5020 C   0  0  0  0  0  0  0  0  0  0  0  0
    7.5430   -1.2820    0.8900 C   0  0  0  0  0  0  0  0  0  0  0  0
    6.3100   -1.9040    0.8270 C   0  0  0  0  0  0  0  0  0  0  0  0
    5.2460   -1.1490    0.3640 C   0  0  0  0  0  0  0  0  0  0  0  0
    5.3720    0.1650   -0.0240 C   0  0  0  0  0  0  0  0  0  0  0  0
    4.4320    0.9050   -0.4560 N   0  0  0  0  0  0  0  0  0  0  0  0
    3.0880    0.5870   -0.6390 C   0  0  0  0  0  0  0  0  0  0  0  0
    2.5940   -0.4870   -1.3400 C   0  0  0  0  0  0  0  0  0  0  0  0
    1.2410   -0.4590   -1.2970 N   0  0  0  0  0  0  0  0  0  0  0  0
    0.8680    0.6230   -0.5770 C   0  0  0  0  0  0  0  0  0  0  0  0
   -0.4890    1.0300   -0.2820 C   0  0  0  0  0  0  0  0  0  0  0  0
   -0.6080    2.0970    0.4380 O   0  0  0  0  0  0  0  0  0  0  0  0
   -1.6740    0.3710   -0.7050 N   0  0  0  0  0  0  0  0  0  0  0  0
   -1.5780   -0.8170   -1.5120 C   0  0  0  0  0  0  0  0  0  0  0  0
   -1.4680   -2.0230   -0.6180 C   0  0  0  0  0  0  0  0  0  0  0  0
   -1.3360   -3.2740   -1.4740 C   0  0  0  0  0  0  0  0  0  0  0  0
   -1.2400   -4.3570   -0.5760 O   0  0  0  0  0  0  0  0  0  0  0  0
   -2.9790    0.9210   -0.3760 C   0  0  0  0  0  0  0  0  0  0  0  0
   -3.5520    0.4870    0.9280 C   0  0  0  0  0  0  0  0  0  0  0  0
   -4.8480    1.1720    1.0480 N   0  0  0  0  0  0  0  0  0  0  0  0
   -5.0130    2.5760    1.2260 C   0  0  0  0  0  0  0  0  0  0  0  0
   -6.2860    2.8880    1.2970 C   0  0  0  0  0  0  0  0  0  0  0  0
   -7.1150    1.6830    1.1700 C   0  0  1  0  0  0  0  0  0  0  0  0
   -7.7960    1.4680    2.3570 F   0  0  0  0  0  0  0  0  0  0  0  0
   -7.9840    1.7510    0.0970 F   0  0  0  0  0  0  0  0  0  0  0  0
   -6.1300    0.5830    1.0060 C   0  0  0  0  0  0  0  0  0  0  0  0
   -6.4470   -0.7110    0.8460 C   0  0  0  0  0  0  0  0  0  0  0  0
   -5.5580   -1.7030    0.6920 F   0  0  0  0  0  0  0  0  0  0  0  0
    2.0090    1.2370   -0.1920 N   0  0  0  0  0  0  0  0  0  0  0  0
  1  2  1  0
  2  3  1  0
  2  7  1  0
  3  4  2  0
  4  5  1  0
  5  6  2  0
  6  7  1  0
  7  8  2  3
  8  9  1  0
  9 10  2  0
  9 31  1  0
 10 11  1  0
 11 12  2  0
 12 13  1  0
 12 31  1  0
 13 14  2  0
 13 15  1  0
 15 16  1  0
 15 20  1  0
 16 17  1  0
 17 18  1  0
 18 19  1  0
 20 21  1  0
 21 22  1  0
 22 23  1  0
 22 28  1  0
 23 24  2  0
 24 25  1  0
 25 26  1  1
 25 27  1  0
 25 28  1  0
 28 29  2  3
 29 30  1  0
M  END
