
     RDKit          3D

 29 31  0  0  0  0  0  0  0  0999 V2000
   -4.4430    1.3880   -0.3020 C   0  0  0  0  0  0  0  0  0  0  0  0
   -4.8230   -0.0160    0.0090 C   0  0  0  0  0  0  0  0  0  0  0  0
   -4.0650   -0.7430    0.8560 C   0  0  0  0  0  0  0  0  0  0  0  0
   -2.9120   -0.1060    1.4180 N   0  0  0  0  0  0  0  0  0  0  0  0
   -1.8490    0.2450    0.5670 C   0  0  0  0  0  0  0  0  0  0  0  0
   -0.9560    1.2320    0.9320 C   0  0  0  0  0  0  0  0  0  0  0  0
    0.1100    1.6080    0.1020 C   0  0  0  0  0  0  0  0  0  0  0  0
    0.2820    0.9900   -1.1010 C   0  0  0  0  0  0  0  0  0  0  0  0
    1.3120    1.3660   -2.0920 C   0  0  1  0  0  0  0  0  0  0  0  0
    0.6940    2.5480   -2.7020 O   0  0  0  0  0  0  0  0  0  0  0  0
    2.5730    1.9060   -1.5640 C   0  0  0  0  0  0  0  0  0  0  0  0
    3.5530    1.2090   -0.9910 O   0  0  0  0  0  0  0  0  0  0  0  0
    3.7850    0.3790    0.0350 C   0  0  0  0  0  0  0  0  0  0  0  0
    2.7600    0.0960    0.7410 O   0  0  0  0  0  0  0  0  0  0  0  0
    5.0910   -0.1860    0.3720 C   0  0  0  0  0  0  0  0  0  0  0  0
    6.2640    0.2650   -0.1620 C   0  0  0  0  0  0  0  0  0  0  0  0
    7.5270   -0.2020    0.1570 C   0  0  0  0  0  0  0  0  0  0  0  0
    8.7260    0.3510   -0.4600 C   0  0  0  0  0  0  0  0  0  0  0  0
    8.5710    1.2680   -1.3060 O   0  0  0  0  0  0  0  0  0  0  0  0
    7.5890   -1.2210    1.1070 C   0  0  0  0  0  0  0  0  0  0  0  0
    6.4310   -1.6980    1.6620 C   0  0  0  0  0  0  0  0  0  0  0  0
    5.1730   -1.1910    1.3050 C   0  0  0  0  0  0  0  0  0  0  0  0
    3.7320   -1.8470    2.0450 Cl  0  0  0  0  0  0  0  0  0  0  0  0
   -0.6090   -0.0180   -1.5000 C   0  0  0  0  0  0  0  0  0  0  0  0
   -1.6450   -0.3650   -0.6630 C   0  0  0  0  0  0  0  0  0  0  0  0
   -4.4800   -2.1180    1.1280 C   0  0  0  0  0  0  0  0  0  0  0  0
   -5.9530   -2.1450    1.5140 C   0  0  0  0  0  0  0  0  0  0  0  0
   -6.7730   -1.2650    0.6310 C   0  0  0  0  0  0  0  0  0  0  0  0
   -6.0090   -0.7030   -0.5560 C   0  0  0  0  0  0  0  0  0  0  0  0
  1  2  1  0
  2  3  2  0
  2 29  1  0
  3  4  1  0
  3 26  1  0
  4  5  1  0
  5  6  2  0
  5 25  1  0
  6  7  1  0
  7  8  2  0
  8  9  1  0
  8 24  1  0
  9 10  1  6
  9 11  1  0
 11 12  1  0
 12 13  1  0
 13 14  2  0
 13 15  1  0
 15 16  2  0
 15 22  1  0
 16 17  1  0
 17 18  1  0
 17 20  2  0
 18 19  2  0
 20 21  1  0
 21 22  2  0
 22 23  1  0
 24 25  2  0
 26 27  1  0
 27 28  1  0
 28 29  1  0
M  END
