
     RDKit          3D

 29 31  0  0  0  0  0  0  0  0999 V2000
    2.6780    1.5240    1.5710 C   0  0  0  0  0  0  0  0  0  0  0  0
    3.0270    0.7430    0.3300 C   0  0  0  0  0  0  0  0  0  0  0  0
    3.6170    1.3740   -0.6680 C   0  0  0  0  0  0  0  0  0  0  0  0
    3.9050    3.0710   -0.3840 Cl  0  0  0  0  0  0  0  0  0  0  0  0
    4.1000    0.8900   -1.9860 C   0  0  0  0  0  0  0  0  0  0  0  0
    4.8340   -0.3950   -1.8520 C   0  0  0  0  0  0  0  0  0  0  0  0
    4.5570   -1.4890   -1.1560 C   0  0  0  0  0  0  0  0  0  0  0  0
    3.3700   -1.6460   -0.3170 C   0  0  0  0  0  0  0  0  0  0  0  0
    2.6930   -0.6920    0.3320 C   0  0  0  0  0  0  0  0  0  0  0  0
    1.6050   -1.0280    1.0620 O   0  0  0  0  0  0  0  0  0  0  0  0
    0.2300   -0.8590    0.8080 C   0  0  1  0  0  0  0  0  0  0  0  0
   -0.1110    0.3900    0.6360 O   0  0  0  0  0  0  0  0  0  0  0  0
   -0.4450    1.6150    0.4680 C   0  0  0  0  0  0  0  0  0  0  0  0
   -0.0650    2.3590   -0.6710 C   0  0  0  0  0  0  0  0  0  0  0  0
   -0.4050    3.6530   -0.8740 C   0  0  0  0  0  0  0  0  0  0  0  0
   -1.1550    4.3010    0.0550 C   0  0  0  0  0  0  0  0  0  0  0  0
   -1.5610    3.6170    1.2050 C   0  0  0  0  0  0  0  0  0  0  0  0
   -1.2210    2.3100    1.4150 C   0  0  0  0  0  0  0  0  0  0  0  0
   -1.6200    1.6040    2.5670 N   0  0  0  0  0  0  0  0  0  0  0  0
   -2.3930    2.1710    3.5950 C   0  0  0  0  0  0  0  0  0  0  0  0
   -2.8240    3.3390    3.6370 O   0  0  0  0  0  0  0  0  0  0  0  0
   -0.2890   -1.8010   -0.2580 C   0  0  0  0  0  0  0  0  0  0  0  0
    0.5060   -2.5130   -0.8130 O   0  0  0  0  0  0  0  0  0  0  0  0
   -1.7110   -1.8760   -0.6290 C   0  0  1  0  0  0  0  0  0  0  0  0
   -2.2790   -0.6030   -1.1650 C   0  0  0  0  0  0  0  0  0  0  0  0
   -1.8770   -3.0240   -1.6290 C   0  0  0  0  0  0  0  0  0  0  0  0
   -3.0200   -3.8720   -1.1230 C   0  0  0  0  0  0  0  0  0  0  0  0
   -3.7600   -2.9380   -0.1550 C   0  0  0  0  0  0  0  0  0  0  0  0
   -2.5780   -2.3060    0.5440 C   0  0  0  0  0  0  0  0  0  0  0  0
  1  2  1  0
  2  3  2  0
  2  9  1  0
  3  4  1  0
  3  5  1  0
  5  6  1  0
  6  7  2  0
  7  8  1  0
  8  9  2  0
  9 10  1  0
 11 10  1  6
 11 12  1  0
 11 22  1  0
 12 13  1  0
 13 14  2  0
 13 18  1  0
 14 15  1  0
 15 16  2  0
 16 17  1  0
 17 18  2  0
 18 19  1  0
 19 20  1  0
 20 21  2  0
 22 23  2  0
 22 24  1  0
 24 25  1  6
 24 26  1  0
 24 29  1  0
 26 27  1  0
 27 28  1  0
 28 29  1  0
M  END
