
     RDKit          3D

 33 32  0  0  0  0  0  0  0  0999 V2000
   -3.5120    4.4980   -1.9170 O   0  0  0  0  0  0  0  0  0  0  0  0
   -4.5150    4.4470   -1.1970 C   0  0  0  0  0  0  0  0  0  0  0  0
   -5.0560    5.7040   -0.8360 O   0  0  0  0  0  0  0  0  0  0  0  0
   -5.1750    3.2310   -0.6970 C   0  0  0  0  0  0  0  0  0  0  0  0
   -4.5650    2.0900   -1.0480 O   0  0  0  0  0  0  0  0  0  0  0  0
   -3.2960    1.8740   -0.6610 C   0  0  0  0  0  0  0  0  0  0  0  0
   -3.0860    1.8730    0.8340 C   0  0  2  0  0  0  0  0  0  0  0  0
   -3.3960    3.1720    1.2950 O   0  0  0  0  0  0  0  0  0  0  0  0
   -1.6900    1.6150    1.2560 C   0  0  0  0  0  0  0  0  0  0  0  0
   -1.0880    0.2910    0.8500 C   0  0  1  0  0  0  0  0  0  0  0  0
    0.1590    0.2470    1.2770 O   0  0  0  0  0  0  0  0  0  0  0  0
    1.3110    0.0930    0.7170 C   0  0  0  0  0  0  0  0  0  0  0  0
    1.8200    1.1460   -0.2210 C   0  0  2  0  0  0  0  0  0  0  0  0
    0.9450    1.2750   -1.4290 C   0  0  0  0  0  0  0  0  0  0  0  0
    1.5330    2.1610   -2.3700 O   0  0  0  0  0  0  0  0  0  0  0  0
    3.1510    0.7280   -0.6670 O   0  0  0  0  0  0  0  0  0  0  0  0
    4.2180    1.5040   -0.3560 C   0  0  0  0  0  0  0  0  0  0  0  0
    3.9850    2.5710    0.3200 O   0  0  0  0  0  0  0  0  0  0  0  0
    5.6280    1.2840   -0.6940 C   0  0  0  0  0  0  0  0  0  0  0  0
    5.9200    0.1420   -1.4020 O   0  0  0  0  0  0  0  0  0  0  0  0
    5.6030   -1.0480   -0.8080 C   0  0  2  0  0  0  0  0  0  0  0  0
    6.8380   -1.7270   -0.5500 O   0  0  0  0  0  0  0  0  0  0  0  0
    4.7710   -1.9810   -1.6450 C   0  0  0  0  0  0  0  0  0  0  0  0
    5.5060   -2.2720   -2.8130 O   0  0  0  0  0  0  0  0  0  0  0  0
   -1.8410   -0.8670    1.5170 C   0  0  1  0  0  0  0  0  0  0  0  0
   -3.1530   -0.9650    1.2250 O   0  0  0  0  0  0  0  0  0  0  0  0
   -1.1410   -2.1350    1.0920 C   0  0  2  0  0  0  0  0  0  0  0  0
   -1.1230   -2.3860   -0.3780 C   0  0  0  0  0  0  0  0  0  0  0  0
   -2.4250   -2.5000   -0.8700 O   0  0  0  0  0  0  0  0  0  0  0  0
   -1.8730   -3.2730    1.7920 C   0  0  2  0  0  0  0  0  0  0  0  0
   -1.7680   -3.0510    3.1570 O   0  0  0  0  0  0  0  0  0  0  0  0
   -1.3660   -4.6280    1.4030 C   0  0  0  0  0  0  0  0  0  0  0  0
   -0.0450   -4.8390    1.7140 O   0  0  0  0  0  0  0  0  0  0  0  0
  1  2  2  0
  2  3  1  0
  2  4  1  0
  4  5  1  0
  5  6  1  0
  6  7  1  0
  7  8  1  6
  7  9  1  0
 10  9  1  1
 10 11  1  0
 10 25  1  0
 11 12  1  0
 13 12  1  1
 13 14  1  0
 13 16  1  0
 14 15  1  0
 16 17  1  0
 17 18  2  0
 17 19  1  0
 19 20  1  0
 20 21  1  0
 21 22  1  6
 21 23  1  0
 23 24  1  0
 25 26  1  6
 25 27  1  0
 27 28  1  6
 27 30  1  0
 28 29  1  0
 30 31  1  1
 30 32  1  0
 32 33  1  0
M  END
