
     RDKit          3D

 33 33  0  0  0  0  0  0  0  0999 V2000
   -7.2580    1.3250   -1.3990 C   0  0  0  0  0  0  0  0  0  0  0  0
   -6.2340    0.8060   -0.6020 O   0  0  0  0  0  0  0  0  0  0  0  0
   -6.2570   -0.5200   -0.1570 C   0  0  0  0  0  0  0  0  0  0  0  0
   -7.2080   -1.2570   -0.4760 O   0  0  0  0  0  0  0  0  0  0  0  0
   -5.1080   -0.9720    0.6930 C   0  0  2  0  0  0  0  0  0  0  0  0
   -5.1010   -0.1340    1.9440 C   0  0  0  0  0  0  0  0  0  0  0  0
   -3.8430   -0.8130   -0.1110 C   0  0  0  0  0  0  0  0  0  0  0  0
   -2.6600   -1.2520    0.6870 C   0  0  2  0  0  0  0  0  0  0  0  0
   -2.6010   -0.4570    1.8370 O   0  0  0  0  0  0  0  0  0  0  0  0
   -1.3690   -1.0190   -0.0770 C   0  0  2  0  0  0  0  0  0  0  0  0
   -1.3650   -1.7580   -1.2330 O   0  0  0  0  0  0  0  0  0  0  0  0
   -1.4220   -3.1240   -1.0480 C   0  0  0  0  0  0  0  0  0  0  0  0
   -0.2450   -1.3650    0.7410 O   0  0  0  0  0  0  0  0  0  0  0  0
    0.3850   -0.1440    1.0720 C   0  0  0  0  0  0  0  0  0  0  0  0
    1.0180    0.0870    2.1060 O   0  0  0  0  0  0  0  0  0  0  0  0
    0.0940    0.7090   -0.0680 C   0  0  1  0  0  0  0  0  0  0  0  0
    0.0470    2.0780    0.1890 O   0  0  0  0  0  0  0  0  0  0  0  0
    0.8350    0.4710   -1.3360 C   0  0  2  0  0  0  0  0  0  0  0  0
    1.0410   -0.8740   -1.6470 O   0  0  0  0  0  0  0  0  0  0  0  0
    1.9140    1.4030   -1.7310 C   0  0  0  0  0  0  0  0  0  0  0  0
    3.1300    1.1950   -1.2620 O   0  0  0  0  0  0  0  0  0  0  0  0
    3.5200    1.2790    0.0210 C   0  0  2  0  0  0  0  0  0  0  0  0
    4.4270    2.5220    0.2090 C   0  0  0  0  0  0  0  0  0  0  0  0
    4.8420    2.6680    1.5900 C   0  0  0  0  0  0  0  0  0  0  0  0
    4.5290    2.0010    2.5920 O   0  0  0  0  0  0  0  0  0  0  0  0
    5.7400    3.7250    1.8660 O   0  0  0  0  0  0  0  0  0  0  0  0
    4.2230    0.0440    0.4790 C   0  0  1  0  0  0  0  0  0  0  0  0
    3.3500   -1.0410    0.3620 O   0  0  0  0  0  0  0  0  0  0  0  0
    5.4240   -0.3010   -0.3700 C   0  0  0  0  0  0  0  0  0  0  0  0
    6.0700   -1.5290    0.1610 C   0  0  0  0  0  0  0  0  0  0  0  0
    6.4530   -1.5990    1.3750 O   0  0  0  0  0  0  0  0  0  0  0  0
    6.2890   -2.6480   -0.6280 O   0  0  0  0  0  0  0  0  0  0  0  0
   -1.2790    0.3450   -0.3490 O   0  0  0  0  0  0  0  0  0  0  0  0
  1  2  1  0
  2  3  1  0
  3  4  2  0
  3  5  1  0
  5  6  1  1
  5  7  1  0
  7  8  1  0
  8  9  1  1
  8 10  1  0
 10 11  1  6
 10 13  1  0
 10 33  1  0
 11 12  1  0
 13 14  1  0
 14 15  2  0
 14 16  1  0
 16 17  1  1
 16 18  1  0
 16 33  1  0
 18 19  1  1
 18 20  1  0
 20 21  1  0
 21 22  1  0
 22 23  1  6
 22 27  1  0
 23 24  1  0
 24 25  2  0
 24 26  1  0
 27 28  1  6
 27 29  1  0
 29 30  1  0
 30 31  2  0
 30 32  1  0
M  END
