
     RDKit          3D

 32 35  0  0  0  0  0  0  0  0999 V2000
   -4.9100   -4.2240   -1.8770 C   0  0  0  0  0  0  0  0  0  0  0  0
   -3.7880   -3.4360   -1.2900 C   0  0  0  0  0  0  0  0  0  0  0  0
   -4.2350   -2.0110   -1.0750 C   0  0  0  0  0  0  0  0  0  0  0  0
   -5.4650   -1.6580   -1.4040 C   0  0  0  0  0  0  0  0  0  0  0  0
   -5.9090   -0.2840   -1.2020 C   0  0  0  0  0  0  0  0  0  0  0  0
   -5.1130    0.6380   -0.6910 C   0  0  0  0  0  0  0  0  0  0  0  0
   -3.7310    0.2410   -0.3210 C   0  0  0  0  0  0  0  0  0  0  0  0
   -2.9060    1.1450    0.1940 C   0  0  0  0  0  0  0  0  0  0  0  0
   -1.5640    0.8130    0.5680 C   0  0  0  0  0  0  0  0  0  0  0  0
   -0.7830    1.7310    1.0850 C   0  0  0  0  0  0  0  0  0  0  0  0
   -1.1970    3.1040    1.3220 C   0  0  0  0  0  0  0  0  0  0  0  0
   -0.5480    4.1750    0.7170 C   0  0  0  0  0  0  0  0  0  0  0  0
   -0.9160    5.4390    0.9830 N   0  0  0  0  0  0  0  0  0  0  0  0
   -1.9150    5.7120    1.8350 C   0  0  0  0  0  0  0  0  0  0  0  0
   -2.2100    6.9350    2.0390 O   0  0  0  0  0  0  0  0  0  0  0  0
   -2.5680    4.7130    2.4420 N   0  0  0  0  0  0  0  0  0  0  0  0
   -2.2160    3.4240    2.1910 C   0  0  0  0  0  0  0  0  0  0  0  0
   -2.8870    2.5510    2.8160 O   0  0  0  0  0  0  0  0  0  0  0  0
   -1.0400   -0.5410    0.3830 C   0  0  0  0  0  0  0  0  0  0  0  0
    0.3150   -0.7610    0.7820 N   0  0  0  0  0  0  0  0  0  0  0  0
    1.3180   -0.2320   -0.0930 C   0  0  2  0  0  0  0  0  0  0  0  0
    1.7570   -1.3950   -0.9950 C   0  0  0  0  0  0  0  0  0  0  0  0
    2.7100   -2.1050   -0.3280 O   0  0  0  0  0  0  0  0  0  0  0  0
    3.1200   -1.4290    0.7840 C   0  0  1  0  0  0  0  0  0  0  0  0
    4.6160   -1.3660    0.9620 C   0  0  0  0  0  0  0  0  0  0  0  0
    5.2480   -0.8410   -0.2840 C   0  0  1  0  0  0  0  0  0  0  0  0
    6.5000   -0.0720    0.1040 C   0  0  0  0  0  0  0  0  0  0  0  0
    5.6770   -2.0210   -1.1370 C   0  0  0  0  0  0  0  0  0  0  0  0
    4.3600   -0.0290   -0.9830 O   0  0  0  0  0  0  0  0  0  0  0  0
    3.6160    0.7820   -0.1340 C   0  0  0  0  0  0  0  0  0  0  0  0
    2.6060   -0.0060    0.6690 C   0  0  1  0  0  0  0  0  0  0  0  0
   -3.3880   -1.0700   -0.5420 O   0  0  0  0  0  0  0  0  0  0  0  0
  1  2  1  0
  2  3  1  0
  3  4  2  0
  3 32  1  0
  4  5  1  0
  5  6  2  0
  6  7  1  0
  7  8  2  3
  7 32  1  0
  8  9  1  0
  9 10  2  3
  9 19  1  0
 10 11  1  0
 11 12  2  0
 11 17  1  0
 12 13  1  0
 13 14  1  0
 14 15  2  0
 14 16  1  0
 16 17  1  0
 17 18  2  0
 19 20  1  0
 21 20  1  1
 21 22  1  0
 21 31  1  0
 22 23  1  0
 23 24  1  0
 24 25  1  6
 24 31  1  0
 25 26  1  0
 26 27  1  1
 26 28  1  0
 26 29  1  0
 29 30  1  0
 31 30  1  6
M  CHG  1  20   1
M  END
