
     RDKit          3D

 32 34  0  0  0  0  0  0  0  0999 V2000
    1.0240   -4.8190   -0.1820 C   0  0  0  0  0  0  0  0  0  0  0  0
    1.0850   -3.4280   -0.0460 O   0  0  0  0  0  0  0  0  0  0  0  0
    0.1860   -2.5660   -0.6250 C   0  0  0  0  0  0  0  0  0  0  0  0
   -0.7540   -3.0040   -1.3200 O   0  0  0  0  0  0  0  0  0  0  0  0
    0.2910   -1.0570   -0.4490 C   0  0  1  0  0  0  0  0  0  0  0  0
    0.2880   -0.4980   -1.8200 C   0  0  0  0  0  0  0  0  0  0  0  0
   -0.9850   -0.7000    0.2800 C   0  0  0  0  0  0  0  0  0  0  0  0
   -0.8680   -0.2190    1.4100 O   0  0  0  0  0  0  0  0  0  0  0  0
   -2.2590   -0.8880   -0.2570 N   0  0  0  0  0  0  0  0  0  0  0  0
   -3.5190   -0.5430    0.4360 C   0  0  2  0  0  0  0  0  0  0  0  0
   -3.6280   -1.2700    1.7340 C   0  0  0  0  0  0  0  0  0  0  0  0
   -4.6120   -1.0060   -0.5160 C   0  0  0  0  0  0  0  0  0  0  0  0
   -4.4870   -2.4380   -0.7740 N   0  0  0  0  0  0  0  0  0  0  0  0
   -3.4940    0.9300    0.5180 C   0  0  0  0  0  0  0  0  0  0  0  0
   -4.5640    1.7040    1.1560 C   0  0  2  0  0  0  0  0  0  0  0  0
   -5.9460    1.6220    0.5980 C   0  0  0  0  0  0  0  0  0  0  0  0
   -4.1340    3.1860    1.0390 C   0  0  0  0  0  0  0  0  0  0  0  0
   -4.5890    1.5150    2.5700 O   0  0  0  0  0  0  0  0  0  0  0  0
    1.4310   -0.8170    0.3740 N   0  0  0  0  0  0  0  0  0  0  0  0
    1.5320   -1.4080    1.6990 C   0  0  0  0  0  0  0  0  0  0  0  0
    0.6720   -2.1660    2.2370 O   0  0  0  0  0  0  0  0  0  0  0  0
    2.7780   -0.9910    2.3070 C   0  0  0  0  0  0  0  0  0  0  0  0
    3.4290   -0.1370    1.3160 C   0  0  0  0  0  0  0  0  0  0  0  0
    4.6390    0.5480    1.3300 C   0  0  0  0  0  0  0  0  0  0  0  0
    5.0390    1.3140    0.2340 C   0  0  0  0  0  0  0  0  0  0  0  0
    4.2290    1.3940   -0.8730 C   0  0  0  0  0  0  0  0  0  0  0  0
    3.0190    0.7110   -0.8910 C   0  0  0  0  0  0  0  0  0  0  0  0
    2.6100   -0.0610    0.2060 C   0  0  0  0  0  0  0  0  0  0  0  0
    4.6730    2.2130   -2.0270 C   0  0  0  0  0  0  0  0  0  0  0  0
    6.1780    1.9660   -2.1480 C   0  0  0  0  0  0  0  0  0  0  0  0
    6.8070    2.6030   -0.9490 C   0  0  0  0  0  0  0  0  0  0  0  0
    6.3490    2.0130    0.3390 C   0  0  0  0  0  0  0  0  0  0  0  0
  1  2  1  0
  2  3  1  0
  3  4  2  0
  3  5  1  0
  5  6  1  6
  5  7  1  0
  5 19  1  0
  7  8  2  0
  7  9  1  0
  9 10  1  0
 10 11  1  1
 10 12  1  0
 10 14  1  0
 12 13  1  0
 14 15  1  0
 15 16  1  6
 15 17  1  0
 15 18  1  0
 19 20  1  0
 19 28  1  0
 20 21  2  0
 20 22  1  0
 22 23  1  0
 23 24  2  0
 23 28  1  0
 24 25  1  0
 25 26  2  0
 25 32  1  0
 26 27  1  0
 26 29  1  0
 27 28  2  0
 29 30  1  0
 30 31  1  0
 31 32  1  0
M  CHG  1  13   1
M  END
