
     RDKit          3D

 32 34  0  0  0  0  0  0  0  0999 V2000
   -7.7050   -2.4410    0.1580 C   0  0  0  0  0  0  0  0  0  0  0  0
   -6.9580   -1.5230   -0.7670 C   0  0  0  0  0  0  0  0  0  0  0  0
   -6.2330   -0.4490   -0.0360 C   0  0  1  0  0  0  0  0  0  0  0  0
   -5.2390   -0.8280    0.8930 N   0  0  0  0  0  0  0  0  0  0  0  0
   -4.0880   -1.4690    0.4350 C   0  0  0  0  0  0  0  0  0  0  0  0
   -4.1340   -2.7550   -0.0250 C   0  0  0  0  0  0  0  0  0  0  0  0
   -2.9800   -3.3700   -0.4450 C   0  0  0  0  0  0  0  0  0  0  0  0
   -1.7710   -2.6980   -0.4060 C   0  0  0  0  0  0  0  0  0  0  0  0
   -1.6850   -1.3970    0.0520 C   0  0  0  0  0  0  0  0  0  0  0  0
   -0.3570   -0.7450    0.1120 C   0  0  0  0  0  0  0  0  0  0  0  0
   -0.2150    0.4850   -0.3410 C   0  0  0  0  0  0  0  0  0  0  0  0
   -1.3330    1.2840   -0.9270 C   0  0  0  0  0  0  0  0  0  0  0  0
    1.0520    1.1230   -0.2670 N   0  0  0  0  0  0  0  0  0  0  0  0
    2.1920    0.4850    0.2830 C   0  0  0  0  0  0  0  0  0  0  0  0
    3.4000    1.0890    0.2200 C   0  0  0  0  0  0  0  0  0  0  0  0
    4.5750    0.4750    0.7660 C   0  0  0  0  0  0  0  0  0  0  0  0
    5.7980    0.9110    0.7880 C   0  0  0  0  0  0  0  0  0  0  0  0
    6.8430    0.1680    1.3730 O   0  0  0  0  0  0  0  0  0  0  0  0
    8.1690    0.1860    0.9460 C   0  0  0  0  0  0  0  0  0  0  0  0
    8.5690    1.4180    0.1760 C   0  0  2  0  0  0  0  0  0  0  0  0
    9.9060    1.8980    0.6910 C   0  0  0  0  0  0  0  0  0  0  0  0
    7.6380    2.5050    0.3470 N   0  0  0  0  0  0  0  0  0  0  0  0
    6.2330    2.1960    0.2240 C   0  0  0  0  0  0  0  0  0  0  0  0
    5.4420    2.9700   -0.3260 O   0  0  0  0  0  0  0  0  0  0  0  0
    2.0690   -0.8300    0.9170 C   0  0  0  0  0  0  0  0  0  0  0  0
    0.7840   -1.4450    0.6530 C   0  0  0  0  0  0  0  0  0  0  0  0
    0.6710   -2.6910    0.9240 O   0  0  0  0  0  0  0  0  0  0  0  0
   -2.8540   -0.8190    0.4610 C   0  0  0  0  0  0  0  0  0  0  0  0
   -5.8400    0.6610   -0.9580 C   0  0  0  0  0  0  0  0  0  0  0  0
   -6.6580    0.9890   -1.8690 O   0  0  0  0  0  0  0  0  0  0  0  0
   -4.6540    1.3510   -0.8850 O   0  0  0  0  0  0  0  0  0  0  0  0
   -4.3980    2.3890   -1.8210 C   0  0  0  0  0  0  0  0  0  0  0  0
  1  2  1  0
  3  2  1  6
  3  4  1  0
  3 29  1  0
  4  5  1  0
  5  6  2  0
  5 28  1  0
  6  7  1  0
  7  8  2  0
  8  9  1  0
  9 10  1  0
  9 28  2  0
 10 11  2  0
 10 26  1  0
 11 12  1  0
 11 13  1  0
 13 14  1  0
 14 15  2  3
 14 25  1  0
 15 16  1  0
 16 17  2  3
 17 18  1  0
 17 23  1  0
 18 19  1  0
 19 20  1  0
 20 21  1  1
 20 22  1  0
 22 23  1  0
 23 24  2  0
 25 26  1  0
 26 27  2  0
 29 30  2  0
 29 31  1  0
 31 32  1  0
M  CHG  1   4   1
M  END
