
     RDKit          3D

 32 34  0  0  0  0  0  0  0  0999 V2000
    6.8050    0.7850    3.2060 C   0  0  0  0  0  0  0  0  0  0  0  0
    6.0620    0.5490    1.9350 C   0  0  0  0  0  0  0  0  0  0  0  0
    4.7150    0.7840    1.8850 C   0  0  0  0  0  0  0  0  0  0  0  0
    3.9930    0.5740    0.7120 C   0  0  0  0  0  0  0  0  0  0  0  0
    4.6650    0.1270   -0.3880 C   0  0  0  0  0  0  0  0  0  0  0  0
    3.7260    0.0110   -1.3800 C   0  0  0  0  0  0  0  0  0  0  0  0
    2.4840    0.3970   -0.8490 C   0  0  0  0  0  0  0  0  0  0  0  0
    1.3000    0.3640   -1.6920 C   0  0  0  0  0  0  0  0  0  0  0  0
    1.4120   -0.0910   -2.8880 O   0  0  0  0  0  0  0  0  0  0  0  0
   -0.0040    0.7850   -1.3530 N   0  0  0  0  0  0  0  0  0  0  0  0
   -1.1040    0.6880   -2.3180 C   0  0  2  0  0  0  0  0  0  0  0  0
   -1.5210    2.1080   -2.6240 C   0  0  0  0  0  0  0  0  0  0  0  0
   -1.9460    2.7740   -1.4720 O   0  0  0  0  0  0  0  0  0  0  0  0
   -2.2500   -0.0670   -1.7580 C   0  0  0  0  0  0  0  0  0  0  0  0
   -2.0800   -1.2480   -1.0720 C   0  0  0  0  0  0  0  0  0  0  0  0
   -3.1670   -1.9560   -0.5470 C   0  0  0  0  0  0  0  0  0  0  0  0
   -4.4600   -1.5070   -0.6890 C   0  0  0  0  0  0  0  0  0  0  0  0
   -5.8580   -2.3320   -0.0410 S   0  0  2  0  0  0  0  0  0  0  0  0
   -5.5450   -3.7970    0.1810 O   0  0  0  0  0  0  0  0  0  0  0  0
   -6.9930   -2.3310   -1.0570 O   0  0  0  0  0  0  0  0  0  0  0  0
   -6.4870   -1.5840    1.4160 C   0  0  0  0  0  0  0  0  0  0  0  0
   -5.4650   -1.5840    2.4800 C   0  0  0  0  0  0  0  0  0  0  0  0
   -5.7380   -1.0640    3.6080 O   0  0  0  0  0  0  0  0  0  0  0  0
   -4.2300   -2.1510    2.2280 O   0  0  0  0  0  0  0  0  0  0  0  0
   -4.6120   -0.3030   -1.3910 C   0  0  0  0  0  0  0  0  0  0  0  0
   -3.5410    0.3920   -1.9080 C   0  0  0  0  0  0  0  0  0  0  0  0
    2.6650    0.7370    0.4270 N   0  0  0  0  0  0  0  0  0  0  0  0
    1.6720    1.1870    1.3570 C   0  0  0  0  0  0  0  0  0  0  0  0
    6.0300   -0.1090   -0.3300 C   0  0  0  0  0  0  0  0  0  0  0  0
    6.8340   -0.6810   -1.7760 Cl  0  0  0  0  0  0  0  0  0  0  0  0
    6.7390    0.0960    0.8180 C   0  0  0  0  0  0  0  0  0  0  0  0
    8.4820   -0.2040    0.8930 Cl  0  0  0  0  0  0  0  0  0  0  0  0
  1  2  1  0
  2  3  2  0
  2 31  1  0
  3  4  1  0
  4  5  2  0
  4 27  1  0
  5  6  1  0
  5 29  1  0
  6  7  2  0
  7  8  1  0
  7 27  1  0
  8  9  2  0
  8 10  1  0
 10 11  1  0
 11 12  1  1
 11 14  1  0
 12 13  1  0
 14 15  2  0
 14 26  1  0
 15 16  1  0
 16 17  2  0
 17 18  1  0
 17 25  1  0
 18 19  2  0
 18 20  2  0
 18 21  1  1
 21 22  1  0
 22 23  2  0
 22 24  1  0
 25 26  2  0
 27 28  1  0
 29 30  1  0
 29 31  2  0
 31 32  1  0
M  END
