
     RDKit          3D

 27 28  0  0  0  0  0  0  0  0999 V2000
   -3.8770   -2.5740    1.2210 O   0  0  0  0  0  0  0  0  0  0  0  0
   -4.4300   -1.2040    0.7740 P   0  0  0  0  0  0  0  0  0  0  0  0
   -3.6250    0.3950    1.2610 C   0  0  1  0  0  0  0  0  0  0  0  0
   -2.1920    0.1310    1.3910 N   0  0  0  0  0  0  0  0  0  0  0  0
   -1.4950   -0.3380    0.2570 C   0  0  0  0  0  0  0  0  0  0  0  0
   -2.1200   -0.8780   -0.7110 N   0  0  0  0  0  0  0  0  0  0  0  0
   -1.4450   -1.3760   -1.9020 C   0  0  0  0  0  0  0  0  0  0  0  0
   -0.2800   -0.4490   -2.1580 C   0  0  0  0  0  0  0  0  0  0  0  0
    0.3090    0.0010   -3.2720 N   0  0  0  0  0  0  0  0  0  0  0  0
    1.3140    0.8220   -2.9210 N   0  0  0  0  0  0  0  0  0  0  0  0
    1.3810    0.9070   -1.5800 C   0  0  0  0  0  0  0  0  0  0  0  0
    2.3310    1.6940   -0.7520 C   0  0  0  0  0  0  0  0  0  0  0  0
    3.4930    0.9520   -0.4350 O   0  0  0  0  0  0  0  0  0  0  0  0
    4.4490    1.5970    0.3380 C   0  0  0  0  0  0  0  0  0  0  0  0
    4.2610    2.7960    0.7280 O   0  0  0  0  0  0  0  0  0  0  0  0
    5.6390    1.0060    0.7310 O   0  0  0  0  0  0  0  0  0  0  0  0
    0.3790    0.1070   -1.1300 N   0  0  0  0  0  0  0  0  0  0  0  0
   -0.0360   -0.2050    0.2080 C   0  0  2  0  0  0  0  0  0  0  0  0
    0.5470   -1.5470    0.5210 C   0  0  0  0  0  0  0  0  0  0  0  0
   -0.1990   -2.5250    0.7680 O   0  0  0  0  0  0  0  0  0  0  0  0
    1.9210   -1.7560    0.5480 O   0  0  0  0  0  0  0  0  0  0  0  0
    2.4780   -2.9930    0.8360 C   0  0  0  0  0  0  0  0  0  0  0  0
    1.7230   -3.9720    1.0840 O   0  0  0  0  0  0  0  0  0  0  0  0
    3.8740   -3.1670    0.8550 O   0  0  0  0  0  0  0  0  0  0  0  0
   -3.8350    1.5980   -0.1300 P   0  0  0  0  0  0  0  0  0  0  0  0
   -2.8700    2.9980    0.2430 O   0  0  0  0  0  0  0  0  0  0  0  0
   -5.5020    2.0270   -0.3410 O   0  0  0  0  0  0  0  0  0  0  0  0
  1  2  2  0
  2  3  1  0
  3  4  1  6
  3 25  1  0
  4  5  1  0
  5  6  2  0
  5 18  1  0
  6  7  1  0
  7  8  1  0
  8  9  2  0
  8 17  1  0
  9 10  1  0
 10 11  2  0
 11 12  1  0
 11 17  1  0
 12 13  1  0
 13 14  1  0
 14 15  2  0
 14 16  1  0
 17 18  1  0
 18 19  1  6
 19 20  2  0
 19 21  1  0
 21 22  1  0
 22 23  2  0
 22 24  1  0
 25 26  1  0
 25 27  1  0
M  END
