
     RDKit          3D

 27 28  0  0  0  0  0  0  0  0999 V2000
   -2.6570    0.8460    4.8790 N   0  0  0  0  0  0  0  0  0  0  0  0
   -2.6570    1.9850    4.0090 C   0  0  0  0  0  0  0  0  0  0  0  0
   -2.2370    1.6810    2.6910 O   0  0  0  0  0  0  0  0  0  0  0  0
   -0.9710    1.1540    2.4110 C   0  0  0  0  0  0  0  0  0  0  0  0
   -0.2200    0.9610    3.3740 O   0  0  0  0  0  0  0  0  0  0  0  0
   -0.5910    0.8610    1.0570 N   0  0  0  0  0  0  0  0  0  0  0  0
   -1.4620    1.0850   -0.0510 C   0  0  0  0  0  0  0  0  0  0  0  0
   -1.2760    0.2220   -1.2300 C   0  0  1  0  0  0  0  0  0  0  0  0
   -0.1390   -0.7570   -1.1650 C   0  0  2  0  0  0  0  0  0  0  0  0
   -1.2210   -1.6490   -0.5560 C   0  0  0  0  0  0  0  0  0  0  0  0
   -2.1170   -0.9070   -1.4080 N   0  0  0  0  0  0  0  0  0  0  0  0
   -3.4730   -0.8700   -1.1240 C   0  0  0  0  0  0  0  0  0  0  0  0
   -4.1920   -0.0510   -2.1320 C   0  0  0  0  0  0  0  0  0  0  0  0
   -3.4290    0.5380   -3.1780 N   0  0  0  0  0  0  0  0  0  0  0  0
   -5.4450    0.1270   -2.0790 O   0  0  0  0  0  0  0  0  0  0  0  0
    0.9380   -0.4000   -0.3430 N   0  0  0  0  0  0  0  0  0  0  0  0
    2.2610   -0.7630   -0.7120 C   0  0  0  0  0  0  0  0  0  0  0  0
    3.2700   -0.4770   -0.0250 O   0  0  0  0  0  0  0  0  0  0  0  0
    2.5050   -1.4730   -1.8880 O   0  0  0  0  0  0  0  0  0  0  0  0
    4.1450   -1.9270   -2.3550 P   0  0  0  0  0  0  0  0  0  0  0  0
    4.7130   -0.7410   -3.5130 O   0  0  0  0  0  0  0  0  0  0  0  0
    5.1720   -1.9630   -0.9630 O   0  0  0  0  0  0  0  0  0  0  0  0
    6.3510   -0.6800   -1.0890 P   0  0  0  0  0  0  0  0  0  0  0  0
    6.2800    0.2320    0.3950 O   0  0  0  0  0  0  0  0  0  0  0  0
    7.9110   -1.4420   -1.1750 O   0  0  0  0  0  0  0  0  0  0  0  0
    0.7280    0.3220    0.8620 C   0  0  0  0  0  0  0  0  0  0  0  0
    1.6040    0.5040    1.7270 O   0  0  0  0  0  0  0  0  0  0  0  0
  1  2  1  0
  2  3  1  0
  3  4  1  0
  4  5  2  0
  4  6  1  0
  6  7  1  0
  6 26  1  0
  8  7  1  1
  8  9  1  0
  8 11  1  0
  9 10  1  1
  9 16  1  0
 10 11  1  0
 11 12  1  0
 12 13  1  0
 13 14  1  0
 13 15  2  0
 16 17  1  0
 16 26  1  0
 17 18  2  0
 17 19  1  0
 19 20  1  0
 20 21  1  0
 20 22  1  0
 22 23  1  0
 23 24  1  0
 23 25  1  0
 26 27  2  0
M  END
