
     RDKit          3D

 23 25  0  0  0  0  0  0  0  0999 V2000
    5.5180   -0.6930    0.5040 N   0  0  0  0  0  0  0  0  0  0  0  0
    4.2620   -0.3670    1.0680 C   0  0  0  0  0  0  0  0  0  0  0  0
    4.1100    0.2960    2.2300 N   0  0  0  0  0  0  0  0  0  0  0  0
    2.9010    0.5920    2.7410 C   0  0  0  0  0  0  0  0  0  0  0  0
    1.8070    0.2070    2.0580 N   0  0  0  0  0  0  0  0  0  0  0  0
    1.8840   -0.4600    0.8880 C   0  0  0  0  0  0  0  0  0  0  0  0
    3.1290   -0.7560    0.3780 C   0  0  0  0  0  0  0  0  0  0  0  0
    2.9340   -1.4030   -0.7590 N   0  0  0  0  0  0  0  0  0  0  0  0
    1.6170   -1.5280   -0.9880 C   0  0  0  0  0  0  0  0  0  0  0  0
    0.9850   -0.9390    0.0410 N   0  0  0  0  0  0  0  0  0  0  0  0
   -0.4640   -0.8180    0.2450 C   0  0  2  0  0  0  0  0  0  0  0  0
   -1.0610   -1.7390   -0.5950 O   0  0  0  0  0  0  0  0  0  0  0  0
   -1.7050   -1.0810   -1.6010 C   0  0  2  0  0  0  0  0  0  0  0  0
   -1.7710   -1.8210   -2.9030 C   0  0  0  0  0  0  0  0  0  0  0  0
   -2.4510   -3.0160   -2.6750 O   0  0  0  0  0  0  0  0  0  0  0  0
   -1.0020    0.2490   -1.7130 C   0  0  1  0  0  0  0  0  0  0  0  0
   -1.6860    1.1930   -2.4140 O   0  0  0  0  0  0  0  0  0  0  0  0
   -0.9210    0.5600   -0.2120 C   0  0  1  0  0  0  0  0  0  0  0  0
   -2.1360    0.7650    0.3490 O   0  0  0  0  0  0  0  0  0  0  0  0
   -2.4580    2.0270    1.2590 P   0  0  0  0  0  0  0  0  0  0  0  0
   -1.4330    2.4220    2.5810 O   0  0  0  0  0  0  0  0  0  0  0  0
   -3.3280    1.2500    2.2540 O   0  0  0  0  0  0  0  0  0  0  0  0
   -3.6730    3.0950    0.9180 O   0  0  0  0  0  0  0  0  0  0  0  0
  1  2  1  0
  2  3  2  0
  2  7  1  0
  3  4  1  0
  4  5  2  0
  5  6  1  0
  6  7  2  0
  6 10  1  0
  7  8  1  0
  8  9  2  0
  9 10  1  0
 11 10  1  6
 11 12  1  0
 11 18  1  0
 12 13  1  0
 13 14  1  6
 13 16  1  0
 14 15  1  0
 16 17  1  6
 16 18  1  0
 18 19  1  1
 19 20  1  0
 20 21  1  0
 20 22  1  0
 20 23  1  0
M  END
