
     RDKit          3D

 26 27  0  0  0  0  0  0  0  0999 V2000
   -3.5920    2.5650    0.1530 N   0  0  0  0  0  0  0  0  0  0  0  0
   -3.5840    1.3300    0.0920 C   0  0  0  0  0  0  0  0  0  0  0  0
   -2.3340    0.8250   -0.1180 N   0  0  0  0  0  0  0  0  0  0  0  0
   -1.7580   -0.2750   -0.7520 C   0  0  0  0  0  0  0  0  0  0  0  0
   -2.6380   -0.9300   -1.3120 O   0  0  0  0  0  0  0  0  0  0  0  0
   -0.3320   -0.4760   -0.6660 C   0  0  1  0  0  0  0  0  0  0  0  0
    0.4180    0.5160    0.2040 C   0  0  0  0  0  0  0  0  0  0  0  0
    1.7440    0.1750    0.2710 O   0  0  0  0  0  0  0  0  0  0  0  0
    2.1920   -0.8300   -0.5200 C   0  0  1  0  0  0  0  0  0  0  0  0
    3.6430   -1.1260   -0.2960 C   0  0  0  0  0  0  0  0  0  0  0  0
    4.5420   -0.0470   -0.5610 N   0  0  0  0  0  0  0  0  0  0  0  0
    4.5410    1.1850    0.1370 C   0  0  0  0  0  0  0  0  0  0  0  0
    3.7560    1.4500    1.0620 O   0  0  0  0  0  0  0  0  0  0  0  0
    5.4740    2.1740   -0.2270 O   0  0  0  0  0  0  0  0  0  0  0  0
    5.4670    3.6850    0.6350 P   0  0  0  0  0  0  0  0  0  0  0  0
    6.3150    4.8930    0.1880 O   0  0  0  0  0  0  0  0  0  0  0  0
    1.4120   -2.1240   -0.4390 C   0  0  1  0  0  0  0  0  0  0  0  0
    1.7330   -2.9420    0.8030 C   0  0  0  0  0  0  0  0  0  0  0  0
    0.5130   -3.6450    0.9560 O   0  0  0  0  0  0  0  0  0  0  0  0
   -0.5230   -2.8940    0.4230 C   0  0  0  0  0  0  0  0  0  0  0  0
   -1.7760   -3.1770    0.5060 O   0  0  0  0  0  0  0  0  0  0  0  0
    0.0260   -1.7690   -0.2220 N   0  0  0  0  0  0  0  0  0  0  0  0
   -4.8180    0.6870    0.5710 N   0  0  0  0  0  0  0  0  0  0  0  0
   -6.3740    1.1640   -0.0520 P   0  0  0  0  0  0  0  0  0  0  0  0
   -6.7540    0.4580   -1.5910 O   0  0  0  0  0  0  0  0  0  0  0  0
   -6.4830    2.8910   -0.2400 O   0  0  0  0  0  0  0  0  0  0  0  0
  1  2  2  0
  2  3  1  0
  2 23  1  0
  3  4  1  0
  4  5  2  0
  6  4  1  1
  6  7  1  0
  6 22  1  0
  7  8  1  0
  8  9  1  0
  9 10  1  1
  9 17  1  0
 10 11  1  0
 11 12  1  0
 12 13  2  0
 12 14  1  0
 14 15  1  0
 15 16  2  0
 17 18  1  1
 17 22  1  0
 18 19  1  0
 19 20  1  0
 20 21  2  0
 20 22  1  0
 23 24  1  0
 24 25  1  0
 24 26  1  0
M  END
