
     RDKit          3D

 26 27  0  0  0  0  0  0  0  0999 V2000
   -2.2450   -0.0860   -2.1780 C   0  0  0  0  0  0  0  0  0  0  0  0
   -1.6170   -0.0590   -0.8040 C   0  0  2  0  0  0  0  0  0  0  0  0
   -2.4940    0.0480    0.2360 O   0  0  0  0  0  0  0  0  0  0  0  0
   -3.3740   -0.9670    0.4440 C   0  0  0  0  0  0  0  0  0  0  0  0
   -4.5430   -1.3280   -0.9180 P   0  0  0  0  0  0  0  0  0  0  0  0
   -6.1180   -0.6890   -0.6120 O   0  0  0  0  0  0  0  0  0  0  0  0
   -4.7150   -3.0490   -1.1780 O   0  0  0  0  0  0  0  0  0  0  0  0
   -0.8380    1.1240   -0.7710 O   0  0  0  0  0  0  0  0  0  0  0  0
   -0.1740    1.2300    0.4500 C   0  0  2  0  0  0  0  0  0  0  0  0
    0.4520    2.6190    0.4790 C   0  0  0  0  0  0  0  0  0  0  0  0
   -0.5330    3.6000    0.3710 O   0  0  0  0  0  0  0  0  0  0  0  0
    0.2830    5.1390    0.4150 P   0  0  0  0  0  0  0  0  0  0  0  0
    0.3060    5.8000    2.0130 O   0  0  0  0  0  0  0  0  0  0  0  0
   -0.5040    6.2720   -0.6300 O   0  0  0  0  0  0  0  0  0  0  0  0
    0.9410    0.2510    0.4130 C   0  0  0  0  0  0  0  0  0  0  0  0
    2.2210    0.2480    0.8030 N   0  0  0  0  0  0  0  0  0  0  0  0
    2.7880   -0.9100    0.5260 N   0  0  0  0  0  0  0  0  0  0  0  0
    4.1250   -1.3260    0.7730 C   0  0  0  0  0  0  0  0  0  0  0  0
    4.9400   -0.5490    1.3250 O   0  0  0  0  0  0  0  0  0  0  0  0
    4.5820   -2.6820    0.3860 C   0  0  0  0  0  0  0  0  0  0  0  0
    5.9710   -2.8640    0.7400 N   0  0  0  0  0  0  0  0  0  0  0  0
    1.8180   -1.6460   -0.0570 C   0  0  0  0  0  0  0  0  0  0  0  0
    1.9770   -2.8230   -0.4670 O   0  0  0  0  0  0  0  0  0  0  0  0
    0.6620   -0.9490   -0.1400 N   0  0  0  0  0  0  0  0  0  0  0  0
   -0.6510   -1.1880   -0.6330 C   0  0  0  0  0  0  0  0  0  0  0  0
   -0.9730   -2.3990   -0.9230 N   0  0  0  0  0  0  0  0  0  0  0  0
  2  1  1  6
  2  3  1  0
  2  8  1  0
  2 25  1  0
  3  4  1  0
  4  5  1  0
  5  6  1  0
  5  7  1  0
  8  9  1  0
  9 10  1  6
  9 15  1  0
 10 11  1  0
 11 12  1  0
 12 13  1  0
 12 14  1  0
 15 16  2  0
 15 24  1  0
 16 17  1  0
 17 18  1  0
 17 22  1  0
 18 19  2  0
 18 20  1  0
 20 21  1  0
 22 23  2  0
 22 24  1  0
 24 25  1  0
 25 26  2  0
M  END
