
     RDKit          3D

 27 28  0  0  0  0  0  0  0  0999 V2000
    3.4760   -0.2290   -0.8760 N   0  0  0  0  0  0  0  0  0  0  0  0
    3.2510    0.8340   -0.1830 C   0  0  0  0  0  0  0  0  0  0  0  0
    1.9870    1.0890    0.4020 N   0  0  0  0  0  0  0  0  0  0  0  0
    0.8080    0.4010   -0.0780 C   0  0  0  0  0  0  0  0  0  0  0  0
   -0.3980    0.8220    0.6780 C   0  0  0  0  0  0  0  0  0  0  0  0
   -0.2400    1.6760    1.5880 O   0  0  0  0  0  0  0  0  0  0  0  0
   -1.6830    0.2720    0.3760 N   0  0  0  0  0  0  0  0  0  0  0  0
   -1.9430   -0.7130   -0.6530 C   0  0  0  0  0  0  0  0  0  0  0  0
   -3.1110   -1.4830   -0.0220 C   0  0  2  0  0  0  0  0  0  0  0  0
   -3.8460   -2.2640   -1.0130 C   0  0  0  0  0  0  0  0  0  0  0  0
   -3.2760   -2.9270   -1.8940 O   0  0  0  0  0  0  0  0  0  0  0  0
   -5.2300   -2.2660   -0.9680 O   0  0  0  0  0  0  0  0  0  0  0  0
   -5.9890   -1.1830   -0.5430 C   0  0  0  0  0  0  0  0  0  0  0  0
   -5.3240   -0.3050    0.4820 C   0  0  2  0  0  0  0  0  0  0  0  0
   -5.8250    1.0680    0.2670 C   0  0  0  0  0  0  0  0  0  0  0  0
   -7.0570    1.2610    0.2430 O   0  0  0  0  0  0  0  0  0  0  0  0
   -4.9780    2.1390    0.0930 O   0  0  0  0  0  0  0  0  0  0  0  0
   -3.9000   -0.3830    0.4920 N   0  0  0  0  0  0  0  0  0  0  0  0
   -2.9350    0.5490    0.9840 C   0  0  0  0  0  0  0  0  0  0  0  0
   -3.1000    1.4820    1.8160 O   0  0  0  0  0  0  0  0  0  0  0  0
    4.3280    1.7530   -0.0260 N   0  0  0  0  0  0  0  0  0  0  0  0
    6.0360    1.2760   -0.3940 P   0  0  0  0  0  0  0  0  0  0  0  0
    6.9310    1.4230    1.0950 O   0  0  0  0  0  0  0  0  0  0  0  0
    6.0580   -0.3700   -0.9170 O   0  0  0  0  0  0  0  0  0  0  0  0
    7.6680   -1.0370   -0.7620 P   0  0  0  0  0  0  0  0  0  0  0  0
    7.5760   -2.4750    0.1930 O   0  0  0  0  0  0  0  0  0  0  0  0
    8.6550    0.1240    0.0790 O   0  0  0  0  0  0  0  0  0  0  0  0
  1  2  2  0
  2  3  1  0
  2 21  1  0
  3  4  1  0
  4  5  1  0
  5  6  2  0
  5  7  1  0
  7  8  1  0
  7 19  1  0
  9  8  1  6
  9 10  1  0
  9 18  1  0
 10 11  2  0
 10 12  1  0
 12 13  1  0
 13 14  1  0
 14 15  1  6
 14 18  1  0
 15 16  2  0
 15 17  1  0
 18 19  1  0
 19 20  2  0
 21 22  1  0
 22 23  1  0
 22 24  1  0
 24 25  1  0
 25 26  1  0
 25 27  1  0
M  END
