
     RDKit          3D

 26 27  0  0  0  0  0  0  0  0999 V2000
    5.0780    1.0930   -0.1010 N   0  0  0  0  0  0  0  0  0  0  0  0
    4.7660    0.7100    1.1030 C   0  0  0  0  0  0  0  0  0  0  0  0
    3.4020    0.6020    1.4780 N   0  0  0  0  0  0  0  0  0  0  0  0
    2.3980    0.6850    0.4430 C   0  0  1  0  0  0  0  0  0  0  0  0
    2.6670   -0.2070   -0.5880 O   0  0  0  0  0  0  0  0  0  0  0  0
    1.6240   -1.0510   -0.8650 C   0  0  0  0  0  0  0  0  0  0  0  0
    0.3440   -0.2820   -1.2200 C   0  0  0  0  0  0  0  0  0  0  0  0
   -0.0270    0.4070    0.0200 N   0  0  0  0  0  0  0  0  0  0  0  0
   -1.3150    0.8940    0.2700 C   0  0  0  0  0  0  0  0  0  0  0  0
   -1.5270    1.4650    1.3950 O   0  0  0  0  0  0  0  0  0  0  0  0
   -2.3410    0.7610   -0.6820 N   0  0  0  0  0  0  0  0  0  0  0  0
   -2.4590    0.2060   -2.0010 C   0  0  0  0  0  0  0  0  0  0  0  0
   -3.7190    1.0240   -2.2280 C   0  0  2  0  0  0  0  0  0  0  0  0
   -3.4970    2.2680   -2.8320 O   0  0  0  0  0  0  0  0  0  0  0  0
   -3.7340    1.1320   -0.7370 C   0  0  1  0  0  0  0  0  0  0  0  0
   -4.6010    0.1600    0.0020 C   0  0  0  0  0  0  0  0  0  0  0  0
   -5.9580    0.5300   -0.0570 O   0  0  0  0  0  0  0  0  0  0  0  0
   -6.9370   -0.6120    0.8060 P   0  0  0  0  0  0  0  0  0  0  0  0
   -6.6400   -0.5510    2.5140 O   0  0  0  0  0  0  0  0  0  0  0  0
   -6.7510   -2.2130    0.1970 O   0  0  0  0  0  0  0  0  0  0  0  0
    1.0290    0.5570    0.9680 C   0  0  0  0  0  0  0  0  0  0  0  0
    0.7460    0.5730    2.1950 O   0  0  0  0  0  0  0  0  0  0  0  0
    5.8280    0.4130    2.0030 N   0  0  0  0  0  0  0  0  0  0  0  0
    7.4840    0.2680    1.3580 P   0  0  0  0  0  0  0  0  0  0  0  0
    8.6650    0.1170    2.5900 O   0  0  0  0  0  0  0  0  0  0  0  0
    7.5600   -0.9970    0.2020 O   0  0  0  0  0  0  0  0  0  0  0  0
  1  2  2  0
  2  3  1  0
  2 23  1  0
  4  3  1  1
  4  5  1  0
  4 21  1  0
  5  6  1  0
  6  7  1  0
  7  8  1  0
  8  9  1  0
  8 21  1  0
  9 10  2  0
  9 11  1  0
 11 12  1  0
 11 15  1  0
 12 13  1  0
 13 14  1  6
 13 15  1  0
 15 16  1  1
 16 17  1  0
 17 18  1  0
 18 19  1  0
 18 20  1  0
 21 22  2  0
 23 24  1  0
 24 25  1  0
 24 26  1  0
M  END
