
     RDKit          3D

 30 32  0  0  0  0  0  0  0  0999 V2000
    5.3630    2.6980    0.6280 C   0  0  0  0  0  0  0  0  0  0  0  0
    5.3550    1.6520    1.3930 C   0  0  0  0  0  0  0  0  0  0  0  0
    5.1000    0.2720    1.2050 C   0  0  0  0  0  0  0  0  0  0  0  0
    5.2090   -0.5090    2.3370 C   0  0  0  0  0  0  0  0  0  0  0  0
    5.5450   -0.0690    3.6370 C   0  0  0  0  0  0  0  0  0  0  0  0
    5.5980   -0.9500    4.5740 O   0  0  0  0  0  0  0  0  0  0  0  0
    4.7490   -0.4610    0.0530 C   0  0  0  0  0  0  0  0  0  0  0  0
    4.5410   -0.1790   -1.1770 C   0  0  0  0  0  0  0  0  0  0  0  0
    4.5910    1.0120   -1.8550 O   0  0  0  0  0  0  0  0  0  0  0  0
    3.9960    0.9700   -3.1230 C   0  0  0  0  0  0  0  0  0  0  0  0
    3.2560   -0.3390   -3.1200 C   0  0  2  0  0  0  0  0  0  0  0  0
    1.9810   -0.2640   -2.3070 C   0  0  0  0  0  0  0  0  0  0  0  0
    1.9550   -1.4330   -1.4940 N   0  0  0  0  0  0  0  0  0  0  0  0
    1.0190   -1.8950   -0.5720 C   0  0  0  0  0  0  0  0  0  0  0  0
    1.3070   -3.0200   -0.0090 O   0  0  0  0  0  0  0  0  0  0  0  0
   -0.2200   -1.2940   -0.1640 C   0  0  0  0  0  0  0  0  0  0  0  0
   -1.0310   -1.9760    0.7740 C   0  0  0  0  0  0  0  0  0  0  0  0
   -2.2140   -1.4580    1.2090 C   0  0  0  0  0  0  0  0  0  0  0  0
   -2.6970   -0.2540    0.7740 C   0  0  0  0  0  0  0  0  0  0  0  0
   -3.9920    0.2550    1.2830 C   0  0  0  0  0  0  0  0  0  0  0  0
   -5.3280   -0.3400    0.1900 P   0  0  0  0  0  0  0  0  0  0  0  0
   -6.3060   -1.5690    0.8470 O   0  0  0  0  0  0  0  0  0  0  0  0
   -6.9430   -1.2300    2.0240 C   0  0  0  0  0  0  0  0  0  0  0  0
   -6.1730    0.8880   -0.6430 O   0  0  0  0  0  0  0  0  0  0  0  0
   -6.9200    1.7210    0.1500 C   0  0  0  0  0  0  0  0  0  0  0  0
   -7.5910    2.7390   -0.7730 C   0  0  0  0  0  0  0  0  0  0  0  0
   -1.9360    0.4260   -0.1310 C   0  0  0  0  0  0  0  0  0  0  0  0
   -0.7190   -0.0900   -0.5880 C   0  0  0  0  0  0  0  0  0  0  0  0
    3.1990   -2.2170   -1.7510 C   0  0  0  0  0  0  0  0  0  0  0  0
    4.1580   -1.1990   -2.2660 C   0  0  2  0  0  0  0  0  0  0  0  0
  1  2  2  0
  2  3  1  0
  3  4  2  3
  3  7  1  0
  4  5  1  0
  5  6  2  0
  7  8  2  3
  8  9  1  0
  8 30  1  0
  9 10  1  0
 11 10  1  1
 11 12  1  0
 11 30  1  0
 12 13  1  0
 13 14  1  0
 13 29  1  0
 14 15  2  0
 14 16  1  0
 16 17  2  0
 16 28  1  0
 17 18  1  0
 18 19  2  0
 19 20  1  0
 19 27  1  0
 20 21  1  0
 21 22  1  0
 21 24  1  0
 22 23  1  0
 24 25  1  0
 25 26  1  0
 27 28  2  0
 30 29  1  1
M  END
