
     RDKit          3D

 30 32  0  0  0  0  0  0  0  0999 V2000
   -2.0840   -2.3930    2.0870 O   0  0  0  0  0  0  0  0  0  0  0  0
   -1.9950   -1.9560    0.9100 C   0  0  0  0  0  0  0  0  0  0  0  0
   -1.8030   -2.9000   -0.0910 O   0  0  0  0  0  0  0  0  0  0  0  0
   -2.0920   -0.5070    0.5960 C   0  0  2  0  0  0  0  0  0  0  0  0
   -3.5410   -0.1130    0.7940 C   0  0  0  0  0  0  0  0  0  0  0  0
   -4.1990   -0.8490   -0.3500 C   0  0  1  0  0  0  0  0  0  0  0  0
   -5.5440   -0.3100   -0.7070 C   0  0  1  0  0  0  0  0  0  0  0  0
   -6.4320   -0.4590    0.5140 C   0  0  0  0  0  0  0  0  0  0  0  0
   -7.7790    0.1930    0.3010 C   0  0  0  0  0  0  0  0  0  0  0  0
   -7.6450    1.6450   -0.0970 C   0  0  0  0  0  0  0  0  0  0  0  0
   -6.2060    2.0610   -0.2510 C   0  0  0  0  0  0  0  0  0  0  0  0
   -5.5020    1.1120   -1.1970 C   0  0  0  0  0  0  0  0  0  0  0  0
   -3.1730   -0.7830   -1.4390 C   0  0  0  0  0  0  0  0  0  0  0  0
   -1.9410   -0.3390   -0.8300 N   0  0  0  0  0  0  0  0  0  0  0  0
   -0.7950    0.1570   -1.4890 C   0  0  0  0  0  0  0  0  0  0  0  0
   -0.7730    0.2490   -2.7560 O   0  0  0  0  0  0  0  0  0  0  0  0
    0.4170    0.5850   -0.7000 C   0  0  0  0  0  0  0  0  0  0  0  0
    1.4190   -0.8560   -0.3180 P   0  0  1  0  0  0  0  0  0  0  0  0
    1.1940   -1.3680    1.0820 O   0  0  0  0  0  0  0  0  0  0  0  0
    1.0910   -2.0960   -1.4220 O   0  0  0  0  0  0  0  0  0  0  0  0
    3.1670   -0.4190   -0.5300 C   0  0  0  0  0  0  0  0  0  0  0  0
    3.5980    0.4990    0.5650 C   0  0  0  0  0  0  0  0  0  0  0  0
    5.0430    0.8610    0.3940 C   0  0  0  0  0  0  0  0  0  0  0  0
    5.9150   -0.3610    0.4590 C   0  0  0  0  0  0  0  0  0  0  0  0
    7.3530    0.0570    0.2890 C   0  0  0  0  0  0  0  0  0  0  0  0
    7.8990    0.1030   -0.9670 C   0  0  0  0  0  0  0  0  0  0  0  0
    9.2280    0.4830   -1.1500 C   0  0  0  0  0  0  0  0  0  0  0  0
   10.0260    0.8210   -0.0860 C   0  0  0  0  0  0  0  0  0  0  0  0
    9.4570    0.7690    1.1810 C   0  0  0  0  0  0  0  0  0  0  0  0
    8.1450    0.3940    1.3620 C   0  0  0  0  0  0  0  0  0  0  0  0
  1  2  2  0
  2  3  1  0
  4  2  1  6
  4  5  1  0
  4 14  1  0
  6  5  1  1
  6  7  1  0
  6 13  1  0
  7  8  1  1
  7 12  1  0
  8  9  1  0
  9 10  1  0
 10 11  1  0
 11 12  1  0
 13 14  1  0
 14 15  1  0
 15 16  2  0
 15 17  1  0
 17 18  1  0
 18 19  2  0
 18 20  1  6
 18 21  1  0
 21 22  1  0
 22 23  1  0
 23 24  1  0
 24 25  1  0
 25 26  2  0
 25 30  1  0
 26 27  1  0
 27 28  2  0
 28 29  1  0
 29 30  2  0
M  END
