
     RDKit          3D

 30 32  0  0  0  0  0  0  0  0999 V2000
   -7.3050   -0.6360    1.0450 C   0  0  0  0  0  0  0  0  0  0  0  0
   -6.2860    0.4700    0.6910 C   0  0  0  0  0  0  0  0  0  0  0  0
   -4.9850   -0.2180    0.5760 C   0  0  0  0  0  0  0  0  0  0  0  0
   -3.7940    0.6850    0.2260 C   0  0  2  0  0  0  0  0  0  0  0  0
   -2.7320   -0.2270    0.1770 O   0  0  0  0  0  0  0  0  0  0  0  0
   -1.4230   -0.0050   -0.0930 C   0  0  0  0  0  0  0  0  0  0  0  0
   -1.1240    1.1700   -0.3290 O   0  0  0  0  0  0  0  0  0  0  0  0
   -0.3650   -1.0490   -0.1200 C   0  0  2  0  0  0  0  0  0  0  0  0
    0.9040   -0.4450   -0.4410 N   0  0  0  0  0  0  0  0  0  0  0  0
    1.9680   -0.4760    0.4850 C   0  0  0  0  0  0  0  0  0  0  0  0
    1.7760   -1.0500    1.6040 O   0  0  0  0  0  0  0  0  0  0  0  0
    3.2570    0.1190    0.1980 C   0  0  0  0  0  0  0  0  0  0  0  0
    3.5480    0.7520   -0.9760 C   0  0  0  0  0  0  0  0  0  0  0  0
    4.8020    1.2980   -1.1810 C   0  0  0  0  0  0  0  0  0  0  0  0
    5.7790    1.2260   -0.2320 C   0  0  0  0  0  0  0  0  0  0  0  0
    7.4550    1.9360   -0.4620 P   0  0  0  0  0  0  0  0  0  0  0  0
    7.5410    3.4990    0.5340 C   0  0  0  0  0  0  0  0  0  0  0  0
    8.5940    0.8130    0.2000 O   0  0  0  0  0  0  0  0  0  0  0  0
    8.2950   -0.4410   -0.3580 C   0  0  0  0  0  0  0  0  0  0  0  0
    5.5000    0.5960    0.9450 C   0  0  0  0  0  0  0  0  0  0  0  0
    4.2630    0.0520    1.1580 C   0  0  0  0  0  0  0  0  0  0  0  0
   -0.6960   -2.1500   -1.0990 C   0  0  1  0  0  0  0  0  0  0  0  0
    0.2330   -3.2940   -1.2800 C   0  0  0  0  0  0  0  0  0  0  0  0
   -1.1700   -3.4730   -0.6430 C   0  0  1  0  0  0  0  0  0  0  0  0
   -1.1390   -3.8680    0.7970 C   0  0  0  0  0  0  0  0  0  0  0  0
   -1.6440   -5.1610    0.9230 O   0  0  0  0  0  0  0  0  0  0  0  0
   -3.6480    1.8690    1.0460 C   0  0  0  0  0  0  0  0  0  0  0  0
   -3.6250    3.0700    0.1730 C   0  0  0  0  0  0  0  0  0  0  0  0
   -4.3450    2.6390   -1.0730 C   0  0  0  0  0  0  0  0  0  0  0  0
   -4.0440    1.1850   -1.1760 C   0  0  0  0  0  0  0  0  0  0  0  0
  1  2  1  0
  2  3  1  0
  4  3  1  1
  4  5  1  0
  4 27  1  0
  4 30  1  0
  5  6  1  0
  6  7  2  0
  6  8  1  0
  8  9  1  6
  8 22  1  0
  9 10  1  0
 10 11  2  0
 10 12  1  0
 12 13  2  0
 12 21  1  0
 13 14  1  0
 14 15  2  0
 15 16  1  0
 15 20  1  0
 16 17  1  0
 16 18  1  0
 18 19  1  0
 20 21  2  0
 22 23  1  1
 22 24  1  0
 23 24  1  0
 24 25  1  1
 25 26  1  0
 27 28  1  0
 28 29  1  0
 29 30  1  0
M  END
