
     RDKit          3D

 30 32  0  0  0  0  0  0  0  0999 V2000
   -7.3180    3.7320    0.7700 C   0  0  0  0  0  0  0  0  0  0  0  0
   -6.3070    2.6200    0.8430 C   0  0  0  0  0  0  0  0  0  0  0  0
   -6.2040    2.0590   -0.4340 O   0  0  0  0  0  0  0  0  0  0  0  0
   -5.1350    0.7940   -0.6220 P   0  0  0  0  0  0  0  0  0  0  0  0
   -3.4450    1.0110    0.1140 C   0  0  0  0  0  0  0  0  0  0  0  0
   -2.9170   -0.3340    0.4910 C   0  0  0  0  0  0  0  0  0  0  0  0
   -1.5420   -0.4210    1.0250 C   0  0  0  0  0  0  0  0  0  0  0  0
   -0.4860   -0.0310    0.2110 O   0  0  0  0  0  0  0  0  0  0  0  0
   -0.3870   -0.6430   -0.9790 C   0  0  1  0  0  0  0  0  0  0  0  0
   -0.6810    0.2590   -2.1620 C   0  0  0  0  0  0  0  0  0  0  0  0
    0.6030   -1.6740   -1.2700 C   0  0  0  0  0  0  0  0  0  0  0  0
    0.2430   -2.9040   -1.8560 C   0  0  0  0  0  0  0  0  0  0  0  0
    1.0650   -3.9650   -2.0340 C   0  0  0  0  0  0  0  0  0  0  0  0
    2.3640   -3.8350   -1.6110 C   0  0  0  0  0  0  0  0  0  0  0  0
    2.8120   -2.6500   -1.0240 C   0  0  0  0  0  0  0  0  0  0  0  0
    4.0180   -2.2170   -0.5520 C   0  0  0  0  0  0  0  0  0  0  0  0
    3.8810   -0.8840   -0.1010 C   0  0  0  0  0  0  0  0  0  0  0  0
    4.9990   -0.1300    0.4430 C   0  0  0  0  0  0  0  0  0  0  0  0
    4.9330    1.1250    0.7940 C   0  0  0  0  0  0  0  0  0  0  0  0
    6.1210    1.8710    1.3480 C   0  0  2  0  0  0  0  0  0  0  0  0
    6.0430    3.3260    0.8580 C   0  0  0  0  0  0  0  0  0  0  0  0
    7.4250    1.2920    0.8460 C   0  0  1  0  0  0  0  0  0  0  0  0
    8.3770    1.2360    1.9320 N   0  0  0  0  0  0  0  0  0  0  0  0
    7.3470    0.0840    0.2330 O   0  0  0  0  0  0  0  0  0  0  0  0
    6.3550   -0.7550    0.6330 C   0  0  0  0  0  0  0  0  0  0  0  0
    2.6330   -0.6000   -0.3120 O   0  0  0  0  0  0  0  0  0  0  0  0
    1.9510   -1.6030   -0.8620 C   0  0  0  0  0  0  0  0  0  0  0  0
   -5.7050   -0.7770   -0.7260 O   0  0  0  0  0  0  0  0  0  0  0  0
   -6.8760   -1.0470   -0.0610 C   0  0  0  0  0  0  0  0  0  0  0  0
   -7.2720   -2.5070   -0.2890 C   0  0  0  0  0  0  0  0  0  0  0  0
  1  2  1  0
  2  3  1  0
  3  4  1  0
  4  5  1  0
  4 28  1  0
  5  6  1  0
  6  7  1  0
  7  8  1  0
  8  9  1  0
  9 10  1  6
  9 11  1  0
 11 12  2  0
 11 27  1  0
 12 13  1  0
 13 14  2  0
 14 15  1  0
 15 16  1  0
 15 27  2  0
 16 17  2  0
 17 18  1  0
 17 26  1  0
 18 19  2  0
 18 25  1  0
 19 20  1  0
 20 21  1  6
 20 22  1  0
 22 23  1  1
 22 24  1  0
 24 25  1  0
 26 27  1  0
 28 29  1  0
 29 30  1  0
M  END
