
     RDKit          3D

 22 23  0  0  0  0  0  0  0  0999 V2000
   -5.4620   -0.4900   -1.6010 C   0  0  0  0  0  0  0  0  0  0  0  0
   -4.5860    0.1650   -0.8900 C   0  0  0  0  0  0  0  0  0  0  0  0
   -4.9240    1.4200   -0.3760 O   0  0  0  0  0  0  0  0  0  0  0  0
   -3.9010    2.3140    0.0180 C   0  0  0  0  0  0  0  0  0  0  0  0
   -2.7130    1.6220    0.6520 C   0  0  2  0  0  0  0  0  0  0  0  0
   -1.8020    2.5980    0.9980 O   0  0  0  0  0  0  0  0  0  0  0  0
   -2.1530    0.6520   -0.3810 C   0  0  1  0  0  0  0  0  0  0  0  0
   -0.9810    0.0480    0.0150 O   0  0  0  0  0  0  0  0  0  0  0  0
    0.2120    0.2180   -0.6930 C   0  0  0  0  0  0  0  0  0  0  0  0
    0.1480    0.9430   -1.6940 O   0  0  0  0  0  0  0  0  0  0  0  0
    1.4860   -0.4100   -0.3020 C   0  0  2  0  0  0  0  0  0  0  0  0
    1.3940   -1.1830    0.8280 O   0  0  0  0  0  0  0  0  0  0  0  0
    2.4890    0.7130   -0.0570 C   0  0  1  0  0  0  0  0  0  0  0  0
    2.1070    1.5170    0.9940 O   0  0  0  0  0  0  0  0  0  0  0  0
    3.8530    0.1910    0.1850 C   0  0  0  0  0  0  0  0  0  0  0  0
    4.5750    0.3640    1.2580 C   0  0  0  0  0  0  0  0  0  0  0  0
    5.8850   -0.3170    1.1140 C   0  0  0  0  0  0  0  0  0  0  0  0
    5.7240   -1.1190   -0.1370 C   0  0  0  0  0  0  0  0  0  0  0  0
    4.5750   -0.5850   -0.7320 O   0  0  0  0  0  0  0  0  0  0  0  0
   -3.2250   -0.3500   -0.5880 C   0  0  0  0  0  0  0  0  0  0  0  0
   -3.1020   -1.6570   -0.5260 C   0  0  0  0  0  0  0  0  0  0  0  0
   -1.8280   -2.3620   -0.2380 C   0  0  0  0  0  0  0  0  0  0  0  0
  1  2  2  0
  2  3  1  0
  2 20  1  0
  3  4  1  0
  4  5  1  0
  5  6  1  6
  5  7  1  0
  7  8  1  1
  7 20  1  0
  8  9  1  0
  9 10  2  0
  9 11  1  0
 11 12  1  1
 11 13  1  0
 13 14  1  1
 13 15  1  0
 15 16  2  0
 15 19  1  0
 16 17  1  0
 17 18  1  0
 18 19  1  0
 20 21  2  3
 21 22  1  0
M  END
