
     RDKit          3D

 22 23  0  0  0  0  0  0  0  0999 V2000
    0.1110   -0.5810    2.4330 O   0  0  0  0  0  0  0  0  0  0  0  0
    0.7210   -0.4310    1.3190 C   0  0  0  0  0  0  0  0  0  0  0  0
   -0.0320    0.1130    0.2990 O   0  0  0  0  0  0  0  0  0  0  0  0
   -1.3880    0.4950    0.4310 C   0  0  2  0  0  0  0  0  0  0  0  0
   -2.2840   -0.3450   -0.4430 C   0  0  0  0  0  0  0  0  0  0  0  0
   -2.1870   -1.8020   -0.0820 C   0  0  2  0  0  0  0  0  0  0  0  0
   -0.9160   -2.3250   -0.2150 O   0  0  0  0  0  0  0  0  0  0  0  0
   -3.1710   -2.6550   -0.8130 C   0  0  0  0  0  0  0  0  0  0  0  0
   -3.1700   -3.9360   -0.3120 O   0  0  0  0  0  0  0  0  0  0  0  0
   -1.5910    1.9430    0.2360 C   0  0  0  0  0  0  0  0  0  0  0  0
   -2.4330    2.4860   -0.5840 C   0  0  0  0  0  0  0  0  0  0  0  0
   -2.5860    3.9460   -0.7300 C   0  0  0  0  0  0  0  0  0  0  0  0
   -1.7470    4.7030    0.0890 O   0  0  0  0  0  0  0  0  0  0  0  0
   -0.8570    4.1480    0.9560 C   0  0  0  0  0  0  0  0  0  0  0  0
   -0.7610    2.8360    1.0460 C   0  0  0  0  0  0  0  0  0  0  0  0
    2.1240   -0.8240    1.1780 C   0  0  2  0  0  0  0  0  0  0  0  0
    2.5830   -1.3430    2.3940 O   0  0  0  0  0  0  0  0  0  0  0  0
    3.0220    0.3770    0.8650 C   0  0  0  0  0  0  0  0  0  0  0  0
    4.3140   -0.3650    0.4950 C   0  0  0  0  0  0  0  0  0  0  0  0
    3.7760   -1.3500   -0.5220 C   0  0  2  0  0  0  0  0  0  0  0  0
    3.6330   -0.6360   -1.7290 O   0  0  0  0  0  0  0  0  0  0  0  0
    2.4210   -1.7310    0.0320 C   0  0  0  0  0  0  0  0  0  0  0  0
  1  2  2  0
  2  3  1  0
  2 16  1  0
  3  4  1  0
  4  5  1  6
  4 10  1  0
  5  6  1  0
  6  7  1  6
  6  8  1  0
  8  9  1  0
 10 11  2  0
 10 15  1  0
 11 12  1  0
 12 13  1  0
 13 14  1  0
 14 15  2  0
 16 17  1  1
 16 18  1  0
 16 22  1  0
 18 19  1  0
 19 20  1  0
 20 21  1  6
 20 22  1  0
M  END
