
     RDKit          3D

 19 20  0  0  0  0  0  0  0  0999 V2000
    5.2500    0.6970   -0.2400 N   0  0  0  0  0  0  0  0  0  0  0  0
    4.2590   -0.2270   -0.5380 N   0  0  0  0  0  0  0  0  0  0  0  0
    2.8970    0.1590   -0.6740 C   0  0  0  0  0  0  0  0  0  0  0  0
    1.9990   -0.2860    0.1710 C   0  0  0  0  0  0  0  0  0  0  0  0
    2.3130   -1.1610    1.2520 N   0  0  0  0  0  0  0  0  0  0  0  0
    0.6000    0.1340    0.0020 C   0  0  0  0  0  0  0  0  0  0  0  0
   -0.4250   -0.3770    0.9310 C   0  0  0  0  0  0  0  0  0  0  0  0
   -0.0650   -1.1170    1.8770 O   0  0  0  0  0  0  0  0  0  0  0  0
   -1.8240   -0.0320    0.7600 C   0  0  1  0  0  0  0  0  0  0  0  0
   -2.5010   -0.8260   -0.3540 C   0  0  0  0  0  0  0  0  0  0  0  0
   -3.8950   -0.3150   -0.4080 C   0  0  0  0  0  0  0  0  0  0  0  0
   -4.4920   -0.0750   -1.5110 O   0  0  0  0  0  0  0  0  0  0  0  0
   -4.6320   -0.0710    0.8010 N   0  0  0  0  0  0  0  0  0  0  0  0
   -3.9230   -0.1730    2.0250 C   0  0  0  0  0  0  0  0  0  0  0  0
   -4.4660    0.0190    3.1450 O   0  0  0  0  0  0  0  0  0  0  0  0
   -2.5430   -0.5060    1.9710 N   0  0  0  0  0  0  0  0  0  0  0  0
    0.3110    0.9440   -0.9990 C   0  0  0  0  0  0  0  0  0  0  0  0
    1.2920    1.4690   -1.9780 C   0  0  0  0  0  0  0  0  0  0  0  0
    2.5740    1.0090   -1.7190 O   0  0  0  0  0  0  0  0  0  0  0  0
  1  2  1  0
  2  3  1  0
  3  4  2  0
  3 19  1  0
  4  5  1  0
  4  6  1  0
  6  7  1  0
  6 17  2  0
  7  8  2  0
  9  7  1  1
  9 10  1  0
  9 16  1  0
 10 11  1  0
 11 12  2  0
 11 13  1  0
 13 14  1  0
 14 15  2  0
 14 16  1  0
 17 18  1  0
 18 19  1  0
M  END
