
     RDKit          3D

 19 20  0  0  0  0  0  0  0  0999 V2000
    3.2870   -1.5110    2.0360 C   0  0  0  0  0  0  0  0  0  0  0  0
    2.2770   -0.8970    1.2640 O   0  0  0  0  0  0  0  0  0  0  0  0
    2.5080    0.0650    0.3300 C   0  0  0  0  0  0  0  0  0  0  0  0
    3.6800    0.4290    0.1440 O   0  0  0  0  0  0  0  0  0  0  0  0
    1.3590    0.6900   -0.4750 C   0  0  0  0  0  0  0  0  0  0  0  0
    1.9060    1.6720   -1.3800 C   0  0  0  0  0  0  0  0  0  0  0  0
    3.3400    1.9150   -1.4050 N   0  0  0  0  0  0  0  0  0  0  0  0
    1.3050    2.3720   -2.1770 O   0  0  0  0  0  0  0  0  0  0  0  0
    0.1870    0.2560   -0.2170 C   0  0  0  0  0  0  0  0  0  0  0  0
    0.2220   -0.7980    0.8490 N   0  0  0  0  0  0  0  0  0  0  0  0
   -1.1570    0.5010   -0.6710 C   0  0  0  0  0  0  0  0  0  0  0  0
   -2.2310   -0.1820   -0.1480 C   0  0  0  0  0  0  0  0  0  0  0  0
   -2.6530   -1.1700    0.7830 N   0  0  0  0  0  0  0  0  0  0  0  0
   -4.0810   -1.3100    0.7040 C   0  0  0  0  0  0  0  0  0  0  0  0
   -4.4690   -0.3720   -0.2990 N   0  0  0  0  0  0  0  0  0  0  0  0
   -3.4520    0.2610   -0.7810 C   0  0  0  0  0  0  0  0  0  0  0  0
   -3.1640    1.2470   -1.7300 N   0  0  0  0  0  0  0  0  0  0  0  0
   -1.7190    1.3900   -1.6530 C   0  0  0  0  0  0  0  0  0  0  0  0
   -1.2120    2.2380   -2.4290 O   0  0  0  0  0  0  0  0  0  0  0  0
  1  2  1  0
  2  3  1  0
  3  4  2  0
  3  5  1  0
  5  6  1  0
  5  9  2  3
  6  7  1  0
  6  8  2  0
  9 10  1  0
  9 11  1  0
 11 12  2  0
 11 18  1  0
 12 13  1  0
 12 16  1  0
 13 14  1  0
 14 15  1  0
 15 16  2  0
 16 17  1  0
 17 18  1  0
 18 19  2  0
M  END
