
     RDKit          3D

 18 19  0  0  0  0  0  0  0  0999 V2000
    3.0800   -0.3170    2.7220 N   0  0  0  0  0  0  0  0  0  0  0  0
    3.4590   -0.1260    1.3470 C   0  0  0  0  0  0  0  0  0  0  0  0
    4.7430   -0.1330    0.8890 C   0  0  0  0  0  0  0  0  0  0  0  0
    4.6520    0.0830   -0.4680 C   0  0  0  0  0  0  0  0  0  0  0  0
    3.3690    0.2190   -0.8400 N   0  0  0  0  0  0  0  0  0  0  0  0
    2.6340    0.0910    0.2700 C   0  0  0  0  0  0  0  0  0  0  0  0
    1.1610    0.1630    0.3800 C   0  0  0  0  0  0  0  0  0  0  0  0
    0.6290    0.0190    1.5160 O   0  0  0  0  0  0  0  0  0  0  0  0
    0.4100    0.3980   -0.8320 C   0  0  0  0  0  0  0  0  0  0  0  0
   -0.9120    0.4750   -0.7910 C   0  0  0  0  0  0  0  0  0  0  0  0
   -1.7560    0.6960   -1.8870 O   0  0  0  0  0  0  0  0  0  0  0  0
   -3.0810    0.2830   -1.5120 C   0  0  0  0  0  0  0  0  0  0  0  0
   -3.1110    0.7990   -0.0890 C   0  0  1  0  0  0  0  0  0  0  0  0
   -4.1870    0.2630    0.6780 N   0  0  0  0  0  0  0  0  0  0  0  0
   -4.3360   -1.1030    0.9110 N   0  0  0  0  0  0  0  0  0  0  0  0
   -4.9200   -1.8620    0.1090 O   0  0  0  0  0  0  0  0  0  0  0  0
   -1.7500    0.3440    0.4100 C   0  0  1  0  0  0  0  0  0  0  0  0
   -1.8120   -1.0690    0.7450 N   0  0  0  0  0  0  0  0  0  0  0  0
  1  2  1  0
  2  3  1  0
  2  6  2  0
  3  4  2  0
  4  5  1  0
  5  6  1  0
  6  7  1  0
  7  8  2  0
  7  9  1  0
  9 10  2  3
 10 11  1  0
 10 17  1  0
 11 12  1  0
 12 13  1  0
 13 14  1  1
 13 17  1  0
 14 15  1  0
 15 16  2  0
 17 18  1  6
M  END
