
     RDKit          3D

 34 37  0  0  0  0  0  0  0  0999 V2000
   -3.0220    4.8090   -0.6760 C   0  0  0  0  0  0  0  0  0  0  0  0
   -2.2240    3.5300   -0.4050 C   0  0  0  0  0  0  0  0  0  0  0  0
   -2.5890    2.9500    0.9340 C   0  0  0  0  0  0  0  0  0  0  0  0
   -1.8700    1.7330    1.2510 N   0  0  0  0  0  0  0  0  0  0  0  0
   -1.4780    1.0810   -0.0100 C   0  0  0  0  0  0  0  0  0  0  0  0
   -0.8080   -0.2310    0.2380 C   0  0  1  0  0  0  0  0  0  0  0  0
   -1.6340   -1.1840    0.9330 N   0  0  0  0  0  0  0  0  0  0  0  0
   -1.2330   -1.2580    2.3450 C   0  0  1  0  0  0  0  0  0  0  0  0
   -2.4860   -1.4760    3.1480 C   0  0  0  0  0  0  0  0  0  0  0  0
   -2.2370   -2.4680    4.2520 C   0  0  0  0  0  0  0  0  0  0  0  0
   -2.0600   -3.7710    3.5910 N   0  0  0  0  0  0  0  0  0  0  0  0
   -0.8760   -3.6760    2.8700 N   0  0  0  0  0  0  0  0  0  0  0  0
   -0.3270   -2.4090    2.5660 C   0  0  0  0  0  0  0  0  0  0  0  0
    0.9140   -2.2560    2.4830 O   0  0  0  0  0  0  0  0  0  0  0  0
   -0.2880   -0.9010   -1.0390 C   0  0  2  0  0  0  0  0  0  0  0  0
    0.7390   -0.0180   -1.6570 C   0  0  0  0  0  0  0  0  0  0  0  0
    1.8910    0.2370   -0.7320 C   0  0  0  0  0  0  0  0  0  0  0  0
    2.1060    1.4170   -0.0680 C   0  0  0  0  0  0  0  0  0  0  0  0
    3.1820    1.6310    0.7750 C   0  0  0  0  0  0  0  0  0  0  0  0
    4.0850    0.6110    0.9600 C   0  0  0  0  0  0  0  0  0  0  0  0
    3.8930   -0.5960    0.2990 C   0  0  0  0  0  0  0  0  0  0  0  0
    2.7940   -0.7820   -0.5480 C   0  0  0  0  0  0  0  0  0  0  0  0
    2.5800   -1.9750   -1.2170 O   0  0  0  0  0  0  0  0  0  0  0  0
    3.5230   -3.0130   -1.0120 C   0  0  0  0  0  0  0  0  0  0  0  0
    5.2850    0.7570    1.8600 C   0  0  0  0  0  0  0  0  0  0  0  0
    5.4240    2.1550    2.3790 C   0  0  0  0  0  0  0  0  0  0  0  0
    4.0470    2.7110    2.7480 C   0  0  0  0  0  0  0  0  0  0  0  0
    3.3120    2.9690    1.4500 C   0  0  0  0  0  0  0  0  0  0  0  0
   -1.4850   -1.2150   -1.8480 C   0  0  0  0  0  0  0  0  0  0  0  0
   -1.3280   -1.8860   -3.1630 C   0  0  1  0  0  0  0  0  0  0  0  0
   -2.7700   -2.0960   -3.6970 C   0  0  0  0  0  0  0  0  0  0  0  0
   -3.0080   -1.0070   -4.6990 C   0  0  0  0  0  0  0  0  0  0  0  0
   -1.6580   -1.0250   -5.4270 C   0  0  0  0  0  0  0  0  0  0  0  0
   -0.7290   -1.0000   -4.2200 C   0  0  0  0  0  0  0  0  0  0  0  0
  1  2  1  0
  2  3  1  0
  3  4  1  0
  4  5  1  0
  6  5  1  6
  6  7  1  0
  6 15  1  0
  8  7  1  6
  8  9  1  0
  8 13  1  0
  9 10  1  0
 10 11  1  0
 11 12  1  0
 12 13  1  0
 13 14  2  0
 15 16  1  6
 15 29  1  0
 16 17  1  0
 17 18  2  0
 17 22  1  0
 18 19  1  0
 19 20  2  0
 19 28  1  0
 20 21  1  0
 20 25  1  0
 21 22  2  0
 22 23  1  0
 23 24  1  0
 25 26  1  0
 26 27  1  0
 27 28  1  0
 30 29  1  1
 30 31  1  0
 30 34  1  0
 31 32  1  0
 32 33  1  0
 33 34  1  0
M  CHG  2   4   1   7   1
M  END
