
     RDKit          3D

 34 37  0  0  0  0  0  0  0  0999 V2000
    9.0530    0.0620    1.5640 C   0  0  0  0  0  0  0  0  0  0  0  0
    8.8340    1.1270    0.5210 C   0  0  0  0  0  0  0  0  0  0  0  0
    7.6810    0.7940   -0.3260 N   0  0  0  0  0  0  0  0  0  0  0  0
    7.7810    0.0750   -1.4590 C   0  0  0  0  0  0  0  0  0  0  0  0
    6.5140   -0.0480   -1.9950 C   0  0  0  0  0  0  0  0  0  0  0  0
    5.6370    0.6290   -1.1380 C   0  0  0  0  0  0  0  0  0  0  0  0
    4.2750    0.8440   -1.1530 C   0  0  0  0  0  0  0  0  0  0  0  0
    3.6310    1.5620   -0.1670 C   0  0  0  0  0  0  0  0  0  0  0  0
    2.1660    1.7970   -0.1750 C   0  0  0  0  0  0  0  0  0  0  0  0
    1.4160    0.8130    0.5570 N   0  0  2  0  0  0  0  0  0  0  0  0
    2.2160   -0.2670    1.0690 C   0  0  0  0  0  0  0  0  0  0  0  0
    1.8170   -1.5920    0.5250 C   0  0  0  0  0  0  0  0  0  0  0  0
    0.9190   -2.4940    1.0500 C   0  0  0  0  0  0  0  0  0  0  0  0
    0.8850   -3.5690    0.1960 C   0  0  0  0  0  0  0  0  0  0  0  0
    1.7060   -3.3420   -0.7860 O   0  0  0  0  0  0  0  0  0  0  0  0
    2.2890   -2.1810   -0.6440 C   0  0  0  0  0  0  0  0  0  0  0  0
    0.2980    0.2600   -0.1530 C   0  0  0  0  0  0  0  0  0  0  0  0
   -0.6720    1.2650   -0.6730 C   0  0  2  0  0  0  0  0  0  0  0  0
   -1.2950    2.1100    0.4140 C   0  0  0  0  0  0  0  0  0  0  0  0
   -1.7610    0.5660   -1.4310 C   0  0  0  0  0  0  0  0  0  0  0  0
   -2.5000   -0.3770   -0.6040 N   0  0  0  0  0  0  0  0  0  0  0  0
   -3.6620   -0.8300   -1.2910 C   0  0  0  0  0  0  0  0  0  0  0  0
   -4.9710   -0.2820   -0.8910 C   0  0  2  0  0  0  0  0  0  0  0  0
   -4.9740    1.1640   -1.0440 N   0  0  0  0  0  0  0  0  0  0  0  0
   -5.6140   -0.6780    0.3530 C   0  0  2  0  0  0  0  0  0  0  0  0
   -4.9400   -0.4260    1.6510 C   0  0  0  0  0  0  0  0  0  0  0  0
   -4.6710    0.9170    1.9230 O   0  0  0  0  0  0  0  0  0  0  0  0
   -6.1410   -2.0970    0.3890 C   0  0  0  0  0  0  0  0  0  0  0  0
   -7.2980   -2.1200   -0.5470 C   0  0  0  0  0  0  0  0  0  0  0  0
   -7.8860   -0.7260   -0.4320 C   0  0  0  0  0  0  0  0  0  0  0  0
   -6.9690    0.0590    0.4580 C   0  0  0  0  0  0  0  0  0  0  0  0
    4.4070    2.0670    0.8540 C   0  0  0  0  0  0  0  0  0  0  0  0
    5.7820    1.8640    0.8930 C   0  0  0  0  0  0  0  0  0  0  0  0
    6.4010    1.1420   -0.1060 C   0  0  0  0  0  0  0  0  0  0  0  0
  1  2  1  0
  2  3  1  0
  3  4  1  0
  3 34  1  0
  4  5  2  0
  5  6  1  0
  6  7  2  0
  6 34  1  0
  7  8  1  0
  8  9  1  0
  8 32  2  0
 10  9  1  6
 10 11  1  0
 10 17  1  0
 11 12  1  0
 12 13  1  0
 12 16  2  0
 13 14  2  0
 14 15  1  0
 15 16  1  0
 17 18  1  0
 18 19  1  1
 18 20  1  0
 20 21  1  0
 21 22  1  0
 22 23  1  0
 23 24  1  1
 23 25  1  0
 25 26  1  1
 25 28  1  0
 25 31  1  0
 26 27  1  0
 28 29  1  0
 29 30  1  0
 30 31  1  0
 32 33  1  0
 33 34  2  0
M  CHG  2  10   1  21   1
M  END
