
     RDKit          3D

 33 33  0  0  0  0  0  0  0  0999 V2000
   -4.3770   -1.6860   -0.1150 C   0  0  0  0  0  0  0  0  0  0  0  0
   -3.6970   -2.4870   -0.9510 O   0  0  0  0  0  0  0  0  0  0  0  0
   -2.5730   -2.0560   -1.5630 C   0  0  0  0  0  0  0  0  0  0  0  0
   -1.3860   -1.7000   -0.7050 C   0  0  2  0  0  0  0  0  0  0  0  0
   -1.7040   -0.6350    0.1210 O   0  0  0  0  0  0  0  0  0  0  0  0
   -2.0370    0.4950   -0.5760 C   0  0  0  0  0  0  0  0  0  0  0  0
   -2.3530    1.5760    0.4340 C   0  0  0  0  0  0  0  0  0  0  0  0
   -2.2950    1.3860    1.6520 O   0  0  0  0  0  0  0  0  0  0  0  0
   -2.7150    2.8090   -0.0340 O   0  0  0  0  0  0  0  0  0  0  0  0
   -3.0540    3.9500    0.6640 C   0  0  0  0  0  0  0  0  0  0  0  0
   -4.2790    3.8360    1.5240 C   0  0  2  0  0  0  0  0  0  0  0  0
   -4.4790    5.0830    2.1330 O   0  0  0  0  0  0  0  0  0  0  0  0
   -4.1350    2.9070    2.5450 O   0  0  0  0  0  0  0  0  0  0  0  0
   -0.3640   -1.2570   -1.4670 O   0  0  0  0  0  0  0  0  0  0  0  0
    0.9460   -1.5730   -1.1950 C   0  0  1  0  0  0  0  0  0  0  0  0
    1.6760   -1.3320   -2.5040 C   0  0  0  0  0  0  0  0  0  0  0  0
    1.4170   -0.6070   -0.1730 C   0  0  1  0  0  0  0  0  0  0  0  0
    0.7410   -0.5980    1.0320 O   0  0  0  0  0  0  0  0  0  0  0  0
    2.8870   -0.5880    0.1430 C   0  0  2  0  0  0  0  0  0  0  0  0
    3.3190   -1.6390    0.9300 O   0  0  0  0  0  0  0  0  0  0  0  0
    3.1240    0.6630    0.9140 C   0  0  0  0  0  0  0  0  0  0  0  0
    3.6310    0.5880    2.0540 O   0  0  0  0  0  0  0  0  0  0  0  0
    2.8090    1.9200    0.4290 O   0  0  0  0  0  0  0  0  0  0  0  0
    3.0280    3.0990    1.1460 C   0  0  0  0  0  0  0  0  0  0  0  0
    4.4670    3.3320    1.4900 C   0  0  1  0  0  0  0  0  0  0  0  0
    5.2630    3.4160    0.3370 O   0  0  0  0  0  0  0  0  0  0  0  0
    4.6340    4.5650    2.1430 O   0  0  0  0  0  0  0  0  0  0  0  0
    1.0660   -3.0280   -0.8770 C   0  0  2  0  0  0  0  0  0  0  0  0
    2.3910   -3.6500   -0.9100 C   0  0  0  0  0  0  0  0  0  0  0  0
    0.3030   -3.6730   -1.8990 O   0  0  0  0  0  0  0  0  0  0  0  0
    0.2890   -3.3080    0.3820 C   0  0  0  0  0  0  0  0  0  0  0  0
   -1.0910   -2.8340    0.2440 C   0  0  1  0  0  0  0  0  0  0  0  0
   -1.5680   -2.5820    1.5540 O   0  0  0  0  0  0  0  0  0  0  0  0
  1  2  1  0
  2  3  1  0
  4  3  1  6
  4  5  1  0
  4 14  1  0
  4 32  1  0
  5  6  1  0
  6  7  1  0
  7  8  2  0
  7  9  1  0
  9 10  1  0
 10 11  1  0
 11 12  1  1
 11 13  1  0
 14 15  1  0
 15 16  1  6
 15 17  1  0
 15 28  1  0
 17 18  1  1
 17 19  1  0
 19 20  1  1
 19 21  1  0
 21 22  2  0
 21 23  1  0
 23 24  1  0
 24 25  1  0
 25 26  1  6
 25 27  1  0
 28 29  1  1
 28 30  1  0
 28 31  1  0
 31 32  1  0
 32 33  1  1
M  END
