
     RDKit          3D

 34 37  0  0  0  0  0  0  0  0999 V2000
   -6.0910   -1.4540   -1.8550 C   0  0  0  0  0  0  0  0  0  0  0  0
   -5.2500   -2.0840   -0.7360 C   0  0  1  0  0  0  0  0  0  0  0  0
   -5.0200   -1.0890    0.2530 N   0  0  0  0  0  0  0  0  0  0  0  0
   -3.9320   -1.3600    1.1470 C   0  0  0  0  0  0  0  0  0  0  0  0
   -2.6250   -0.8440    0.7200 C   0  0  0  0  0  0  0  0  0  0  0  0
   -1.7950   -1.6220   -0.0470 C   0  0  0  0  0  0  0  0  0  0  0  0
   -0.5740   -1.1070   -0.4360 C   0  0  0  0  0  0  0  0  0  0  0  0
   -0.1560    0.1430   -0.0930 C   0  0  0  0  0  0  0  0  0  0  0  0
    1.1490    0.6560   -0.5540 C   0  0  0  0  0  0  0  0  0  0  0  0
    1.9580   -0.3340   -1.3280 C   0  0  0  0  0  0  0  0  0  0  0  0
    2.3300   -1.4690   -0.6570 O   0  0  0  0  0  0  0  0  0  0  0  0
    3.1590   -1.2070    0.4350 C   0  0  0  0  0  0  0  0  0  0  0  0
    4.4340   -0.5270    0.0170 C   0  0  0  0  0  0  0  0  0  0  0  0
    5.2180   -1.3050   -0.9110 N   0  0  0  0  0  0  0  0  0  0  0  0
    6.3690   -0.6370   -1.4220 C   0  0  0  0  0  0  0  0  0  0  0  0
    7.1780    0.1530   -0.4580 C   0  0  0  0  0  0  0  0  0  0  0  0
    7.8460   -0.6180    0.6290 C   0  0  0  0  0  0  0  0  0  0  0  0
    7.7700   -2.0580    0.4650 N   0  0  0  0  0  0  0  0  0  0  0  0
    6.4570   -2.5890    0.7900 C   0  0  0  0  0  0  0  0  0  0  0  0
    5.5390   -2.6200   -0.3950 C   0  0  0  0  0  0  0  0  0  0  0  0
   -0.9610    0.9520    0.6760 C   0  0  0  0  0  0  0  0  0  0  0  0
   -0.6170    2.1360    1.0280 O   0  0  0  0  0  0  0  0  0  0  0  0
   -0.3220    3.3370    1.4140 C   0  0  0  0  0  0  0  0  0  0  0  0
   -1.3610    4.3270    0.8980 C   0  0  0  0  0  0  0  0  0  0  0  0
   -1.5240    5.5370    1.5230 C   0  0  0  0  0  0  0  0  0  0  0  0
   -2.4910    6.4340    1.0450 C   0  0  0  0  0  0  0  0  0  0  0  0
   -3.2740    6.1000   -0.0500 C   0  0  0  0  0  0  0  0  0  0  0  0
   -3.1130    4.8870   -0.6800 C   0  0  0  0  0  0  0  0  0  0  0  0
   -3.8690    4.4770   -1.8010 N   0  0  0  0  0  0  0  0  0  0  0  0
   -2.1540    4.0290   -0.1840 C   0  0  0  0  0  0  0  0  0  0  0  0
   -2.2070    0.4040    1.0630 C   0  0  0  0  0  0  0  0  0  0  0  0
   -6.0010   -3.2940   -0.2920 C   0  0  2  0  0  0  0  0  0  0  0  0
   -7.4040   -3.0590    0.2450 C   0  0  0  0  0  0  0  0  0  0  0  0
   -6.2700   -3.6260    1.1100 C   0  0  0  0  0  0  0  0  0  0  0  0
  2  1  1  6
  2  3  1  0
  2 32  1  0
  3  4  1  0
  4  5  1  0
  5  6  2  0
  5 31  1  0
  6  7  1  0
  7  8  2  0
  8  9  1  0
  8 21  1  0
  9 10  1  0
 10 11  1  0
 11 12  1  0
 12 13  1  0
 13 14  1  0
 14 15  1  0
 14 20  1  0
 15 16  1  0
 16 17  1  0
 17 18  1  0
 18 19  1  0
 19 20  1  0
 21 22  1  0
 21 31  2  0
 22 23  1  0
 23 24  1  0
 24 25  2  0
 24 30  1  0
 25 26  1  0
 26 27  2  0
 27 28  1  0
 28 29  1  0
 28 30  2  0
 32 33  1  6
 32 34  1  0
 33 34  1  0
M  CHG  2   3   1  18   1
M  END
