
     RDKit          3D

 34 36  0  0  0  0  0  0  0  0999 V2000
   -4.3260    0.1930   -2.1240 C   0  0  0  0  0  0  0  0  0  0  0  0
   -3.3170    1.2080   -1.7500 C   0  0  0  0  0  0  0  0  0  0  0  0
   -3.2450    1.6020   -0.3830 N   0  0  0  0  0  0  0  0  0  0  0  0
   -3.9790    0.8460    0.5630 C   0  0  1  0  0  0  0  0  0  0  0  0
   -3.0360    0.4270    1.6980 C   0  0  0  0  0  0  0  0  0  0  0  0
   -1.9110   -0.4080    1.2930 C   0  0  0  0  0  0  0  0  0  0  0  0
   -0.6480    0.1100    1.0790 C   0  0  0  0  0  0  0  0  0  0  0  0
    0.4270   -0.6830    0.6610 C   0  0  0  0  0  0  0  0  0  0  0  0
    1.6970   -0.0770    0.4430 N   0  0  0  0  0  0  0  0  0  0  0  0
    2.8130   -0.9570    0.0030 C   0  0  2  0  0  0  0  0  0  0  0  0
    3.1370   -1.8380    1.1710 C   0  0  0  0  0  0  0  0  0  0  0  0
    3.9120   -0.1080   -0.5160 C   0  0  0  0  0  0  0  0  0  0  0  0
    5.1310   -0.7250   -1.0700 C   0  0  1  0  0  0  0  0  0  0  0  0
    5.9060   -1.5970   -0.1470 C   0  0  0  0  0  0  0  0  0  0  0  0
    4.8430   -1.4980   -2.3640 C   0  0  0  0  0  0  0  0  0  0  0  0
    5.9760    0.3600   -1.4940 O   0  0  0  0  0  0  0  0  0  0  0  0
    6.4550    1.3400   -0.6350 C   0  0  0  0  0  0  0  0  0  0  0  0
    5.6430    2.4500   -0.3740 C   0  0  0  0  0  0  0  0  0  0  0  0
    6.1000    3.4220    0.4750 C   0  0  0  0  0  0  0  0  0  0  0  0
    7.3290    3.3190    1.0620 C   0  0  0  0  0  0  0  0  0  0  0  0
    8.1480    2.2550    0.8310 C   0  0  0  0  0  0  0  0  0  0  0  0
    7.6880    1.2490   -0.0420 C   0  0  0  0  0  0  0  0  0  0  0  0
    8.5670    0.2070   -0.2460 O   0  0  0  0  0  0  0  0  0  0  0  0
    0.1580   -1.9810    0.4780 N   0  0  0  0  0  0  0  0  0  0  0  0
   -1.0550   -2.5210    0.6770 C   0  0  0  0  0  0  0  0  0  0  0  0
   -2.1260   -1.7430    1.0930 C   0  0  0  0  0  0  0  0  0  0  0  0
   -3.4350   -2.4500    1.3370 C   0  0  0  0  0  0  0  0  0  0  0  0
   -3.6450   -3.3310    0.1500 C   0  0  0  0  0  0  0  0  0  0  0  0
   -2.6200   -4.4500    0.2410 C   0  0  0  0  0  0  0  0  0  0  0  0
   -1.3050   -3.9050    0.4700 N   0  0  0  0  0  0  0  0  0  0  0  0
   -5.1160    1.5020    1.2570 C   0  0  0  0  0  0  0  0  0  0  0  0
   -6.2520    2.0200    0.4940 C   0  0  1  0  0  0  0  0  0  0  0  0
   -7.2380    2.5950    1.5530 C   0  0  0  0  0  0  0  0  0  0  0  0
   -5.9540    3.2220   -0.4000 C   0  0  0  0  0  0  0  0  0  0  0  0
  1  2  1  0
  2  3  1  0
  3  4  1  0
  4  5  1  1
  4 31  1  0
  5  6  1  0
  6  7  2  0
  6 26  1  0
  7  8  1  0
  8  9  1  0
  8 24  2  0
  9 10  1  0
 10 11  1  1
 10 12  1  0
 12 13  1  0
 13 14  1  1
 13 15  1  0
 13 16  1  0
 16 17  1  0
 17 18  2  0
 17 22  1  0
 18 19  1  0
 19 20  2  0
 20 21  1  0
 21 22  2  0
 22 23  1  0
 24 25  1  0
 25 26  2  0
 25 30  1  0
 26 27  1  0
 27 28  1  0
 28 29  1  0
 29 30  1  0
 31 32  1  0
 32 33  1  1
 32 34  1  0
M  CHG  2   3   1  24   1
M  END
