
     RDKit          3D

 34 36  0  0  0  0  0  0  0  0999 V2000
   -3.5190   -3.5740    2.6290 C   0  0  0  0  0  0  0  0  0  0  0  0
   -4.6210   -3.5140    1.9900 C   0  0  0  0  0  0  0  0  0  0  0  0
   -5.2070   -2.4990    1.1980 C   0  0  0  0  0  0  0  0  0  0  0  0
   -6.4310   -2.8720    0.7080 C   0  0  0  0  0  0  0  0  0  0  0  0
   -7.3480   -2.0940   -0.1540 C   0  0  0  0  0  0  0  0  0  0  0  0
   -7.3420   -0.6580    0.2570 C   0  0  0  0  0  0  0  0  0  0  0  0
   -6.8910   -0.3710    1.6500 C   0  0  0  0  0  0  0  0  0  0  0  0
   -5.3910   -0.1950    1.8050 C   0  0  0  0  0  0  0  0  0  0  0  0
   -4.6630   -1.1770    0.8930 C   0  0  1  0  0  0  0  0  0  0  0  0
   -3.2620   -0.9620    0.7780 N   0  0  0  0  0  0  0  0  0  0  0  0
   -2.6820   -0.4950   -0.4220 C   0  0  0  0  0  0  0  0  0  0  0  0
   -3.5410   -0.2700   -1.3780 O   0  0  0  0  0  0  0  0  0  0  0  0
   -1.3120   -0.2450   -0.7020 C   0  0  0  0  0  0  0  0  0  0  0  0
   -0.9530    0.5930   -1.7180 N   0  0  0  0  0  0  0  0  0  0  0  0
    0.3680    0.6450   -1.8870 C   0  0  0  0  0  0  0  0  0  0  0  0
    1.0100    1.5380   -2.8710 C   0  0  0  0  0  0  0  0  0  0  0  0
    1.2210    2.9520   -2.5050 C   0  0  2  0  0  0  0  0  0  0  0  0
    2.0650    3.1500   -1.2960 C   0  0  0  0  0  0  0  0  0  0  0  0
   -0.1140    3.6860   -2.3170 C   0  0  0  0  0  0  0  0  0  0  0  0
    1.9660    3.6630   -3.6600 C   0  0  0  0  0  0  0  0  0  0  0  0
    2.2040    5.1020   -3.3360 C   0  0  0  0  0  0  0  0  0  0  0  0
    0.9620   -0.2210   -0.9240 C   0  0  0  0  0  0  0  0  0  0  0  0
    2.4010   -0.4000   -0.9670 C   0  0  0  0  0  0  0  0  0  0  0  0
    3.0940   -1.2890   -0.1140 N   0  0  0  0  0  0  0  0  0  0  0  0
    3.2940   -0.8540    1.2260 C   0  0  0  0  0  0  0  0  0  0  0  0
    4.7400   -0.5970    1.6010 C   0  0  2  0  0  0  0  0  0  0  0  0
    4.7720   -0.1980    2.9390 O   0  0  0  0  0  0  0  0  0  0  0  0
    5.4270    0.4430    0.7900 C   0  0  0  0  0  0  0  0  0  0  0  0
    6.8880    0.0010    0.8790 C   0  0  0  0  0  0  0  0  0  0  0  0
    6.7630   -1.4290    0.6900 N   0  0  0  0  0  0  0  0  0  0  0  0
    5.5900   -1.8160    1.4410 C   0  0  0  0  0  0  0  0  0  0  0  0
   -0.0940   -0.7370   -0.2230 C   0  0  0  0  0  0  0  0  0  0  0  0
    0.0270   -1.6770    0.9420 C   0  0  0  0  0  0  0  0  0  0  0  0
   -0.0500   -0.9740    2.2640 C   0  0  0  0  0  0  0  0  0  0  0  0
  1  2  2  0
  2  3  1  0
  3  4  2  0
  3  9  1  0
  4  5  1  0
  5  6  1  0
  6  7  1  0
  7  8  1  0
  8  9  1  0
  9 10  1  1
 10 11  1  0
 11 12  2  0
 11 13  1  0
 13 14  1  0
 13 32  2  0
 14 15  1  0
 15 16  1  0
 15 22  2  0
 16 17  1  0
 17 18  1  1
 17 19  1  0
 17 20  1  0
 20 21  1  0
 22 23  1  0
 22 32  1  0
 23 24  1  0
 24 25  1  0
 25 26  1  0
 26 27  1  1
 26 28  1  0
 26 31  1  0
 28 29  1  0
 29 30  1  0
 30 31  1  0
 32 33  1  0
 33 34  1  0
M  CHG  2  24   1  30   1
M  END
