
     RDKit          3D

 34 36  0  0  0  0  0  0  0  0999 V2000
   -1.3320    4.3180    2.7660 C   0  0  0  0  0  0  0  0  0  0  0  0
   -1.9390    3.0900    2.1410 C   0  0  0  0  0  0  0  0  0  0  0  0
   -2.1870    1.9660    2.9000 C   0  0  0  0  0  0  0  0  0  0  0  0
   -2.7490    0.8600    2.3230 C   0  0  0  0  0  0  0  0  0  0  0  0
   -3.1030    0.7880    0.9630 C   0  0  0  0  0  0  0  0  0  0  0  0
   -3.6710   -0.4510    0.4100 C   0  0  0  0  0  0  0  0  0  0  0  0
   -2.7920   -1.4350   -0.1980 C   0  0  0  0  0  0  0  0  0  0  0  0
   -1.9850   -1.1980   -1.3250 N   0  0  1  0  0  0  0  0  0  0  0  0
   -0.9230   -2.2170   -1.2800 C   0  0  0  0  0  0  0  0  0  0  0  0
    0.3470   -1.7060   -0.7220 C   0  0  0  0  0  0  0  0  0  0  0  0
    0.6400   -0.4550   -0.2850 N   0  0  0  0  0  0  0  0  0  0  0  0
    1.9050   -0.3940    0.1270 C   0  0  0  0  0  0  0  0  0  0  0  0
    2.5920    0.8030    0.6680 C   0  0  0  0  0  0  0  0  0  0  0  0
    2.1020    1.9950    0.8200 C   0  0  0  0  0  0  0  0  0  0  0  0
    3.0930    2.9360    1.3930 C   0  0  0  0  0  0  0  0  0  0  0  0
    2.8380    4.2050    1.6360 C   0  0  0  0  0  0  0  0  0  0  0  0
    3.6470    5.2510    2.1760 C   0  0  0  0  0  0  0  0  0  0  0  0
    4.9880    5.0000    2.5600 N   0  0  0  0  0  0  0  0  0  0  0  0
    4.2490    2.1470    1.5660 N   0  0  0  0  0  0  0  0  0  0  0  0
    3.9840    0.8030    1.1260 C   0  0  0  0  0  0  0  0  0  0  0  0
    2.4280   -1.5770   -0.0350 O   0  0  0  0  0  0  0  0  0  0  0  0
    1.5370   -2.4050   -0.5410 C   0  0  0  0  0  0  0  0  0  0  0  0
    1.7940   -3.8340   -0.8520 C   0  0  0  0  0  0  0  0  0  0  0  0
    1.2720   -4.7970    0.1540 C   0  0  1  0  0  0  0  0  0  0  0  0
    1.6270   -6.1930   -0.3300 C   0  0  0  0  0  0  0  0  0  0  0  0
    2.0250   -4.5480    1.4540 C   0  0  0  0  0  0  0  0  0  0  0  0
   -2.7040   -1.2960   -2.5760 C   0  0  2  0  0  0  0  0  0  0  0  0
   -3.3870   -2.6600   -2.6340 C   0  0  0  0  0  0  0  0  0  0  0  0
   -1.9380   -1.1240   -3.8200 C   0  0  0  0  0  0  0  0  0  0  0  0
   -1.2440    0.1890   -4.0250 C   0  0  0  0  0  0  0  0  0  0  0  0
   -0.2980    0.4900   -3.0630 O   0  0  0  0  0  0  0  0  0  0  0  0
   -2.8400    1.9260    0.2480 C   0  0  0  0  0  0  0  0  0  0  0  0
   -3.2130    2.0310   -1.1850 C   0  0  0  0  0  0  0  0  0  0  0  0
   -2.2710    3.0570    0.8140 C   0  0  0  0  0  0  0  0  0  0  0  0
  1  2  1  0
  2  3  2  0
  2 34  1  0
  3  4  1  0
  4  5  2  0
  5  6  1  0
  5 32  1  0
  6  7  1  0
  8  7  1  1
  8  9  1  0
  8 27  1  0
  9 10  1  0
 10 11  1  0
 10 22  2  0
 11 12  2  0
 12 13  1  0
 12 21  1  0
 13 14  2  0
 13 20  1  0
 14 15  1  0
 15 16  2  3
 15 19  1  0
 16 17  1  0
 17 18  1  0
 19 20  1  0
 21 22  1  0
 22 23  1  0
 23 24  1  0
 24 25  1  6
 24 26  1  0
 27 28  1  6
 27 29  1  0
 29 30  1  0
 30 31  1  0
 32 33  1  0
 32 34  2  0
M  CHG  2   8   1  18   1
M  END
