
     RDKit          3D

 32 34  0  0  0  0  0  0  0  0999 V2000
   -3.4380    3.5960   -0.2050 C   0  0  0  0  0  0  0  0  0  0  0  0
   -3.2550    2.2120   -0.4800 O   0  0  0  0  0  0  0  0  0  0  0  0
   -4.2720    1.3270   -0.1600 C   0  0  0  0  0  0  0  0  0  0  0  0
   -5.3150    1.7600    0.3560 O   0  0  0  0  0  0  0  0  0  0  0  0
   -4.1070   -0.0510   -0.4250 N   0  0  0  0  0  0  0  0  0  0  0  0
   -2.9070   -0.6030   -1.0270 C   0  0  0  0  0  0  0  0  0  0  0  0
   -2.4680   -1.8140   -0.2200 C   0  0  1  0  0  0  0  0  0  0  0  0
   -2.0640   -1.3770    1.1560 C   0  0  0  0  0  0  0  0  0  0  0  0
   -1.0060   -0.4590    1.1950 O   0  0  0  0  0  0  0  0  0  0  0  0
    0.2670   -0.6860    0.7040 C   0  0  0  0  0  0  0  0  0  0  0  0
    0.4670   -1.8290    0.1810 O   0  0  0  0  0  0  0  0  0  0  0  0
    1.3290    0.3110    0.7720 C   0  0  0  0  0  0  0  0  0  0  0  0
    1.0720    1.5360    1.3430 C   0  0  0  0  0  0  0  0  0  0  0  0
    2.0520    2.4880    1.4190 C   0  0  0  0  0  0  0  0  0  0  0  0
    3.3000    2.1730    0.9030 C   0  0  0  0  0  0  0  0  0  0  0  0
    3.6330    0.9800    0.3210 C   0  0  0  0  0  0  0  0  0  0  0  0
    4.8970    0.6240   -0.2100 N   0  0  0  0  0  0  0  0  0  0  0  0
    6.0660    1.3880   -0.1820 C   0  0  0  0  0  0  0  0  0  0  0  0
    6.0590    2.5140    0.3590 O   0  0  0  0  0  0  0  0  0  0  0  0
    7.3150    0.8610   -0.7920 C   0  0  0  0  0  0  0  0  0  0  0  0
    7.5150   -0.2920   -1.4000 C   0  0  0  0  0  0  0  0  0  0  0  0
    8.9100   -0.3660   -1.8370 C   0  0  0  0  0  0  0  0  0  0  0  0
    9.4550    0.7370   -1.3620 C   0  0  0  0  0  0  0  0  0  0  0  0
    8.5820    1.5700   -0.8170 C   0  0  0  0  0  0  0  0  0  0  0  0
    2.5780    0.0500    0.2770 C   0  0  0  0  0  0  0  0  0  0  0  0
   -3.5440   -2.8370   -0.0980 C   0  0  0  0  0  0  0  0  0  0  0  0
   -4.8830   -2.3470   -0.2790 N   0  0  0  0  0  0  0  0  0  0  0  0
   -5.9350   -3.2570   -0.6340 C   0  0  0  0  0  0  0  0  0  0  0  0
   -7.2580   -2.7760   -0.8130 N   0  0  0  0  0  0  0  0  0  0  0  0
   -5.6910   -4.4650   -0.7850 O   0  0  0  0  0  0  0  0  0  0  0  0
   -5.1430   -0.9650   -0.1010 C   0  0  0  0  0  0  0  0  0  0  0  0
   -6.2810   -0.5950    0.3370 O   0  0  0  0  0  0  0  0  0  0  0  0
  1  2  1  0
  2  3  1  0
  3  4  2  0
  3  5  1  0
  5  6  1  0
  5 31  1  0
  6  7  1  0
  7  8  1  1
  7 26  1  0
  8  9  1  0
  9 10  1  0
 10 11  2  0
 10 12  1  0
 12 13  2  0
 12 25  1  0
 13 14  1  0
 14 15  2  0
 15 16  1  0
 16 17  1  0
 16 25  2  0
 17 18  1  0
 18 19  2  0
 18 20  1  0
 20 21  2  0
 20 24  1  0
 21 22  1  0
 22 23  2  0
 23 24  2  0
 26 27  1  0
 27 28  1  0
 27 31  1  0
 28 29  1  0
 28 30  2  0
 31 32  2  0
M  END
