
     RDKit          3D

 32 33  0  0  0  0  0  0  0  0999 V2000
    2.1890    2.7420    2.5250 C   0  0  0  0  0  0  0  0  0  0  0  0
    2.3510    1.5690    1.5530 C   0  0  2  0  0  0  0  0  0  0  0  0
    3.3760    1.9640    0.6060 N   0  0  0  0  0  0  0  0  0  0  0  0
    4.5880    1.2200    0.5380 C   0  0  0  0  0  0  0  0  0  0  0  0
    4.7160    0.2390    1.3140 O   0  0  0  0  0  0  0  0  0  0  0  0
    5.6150    1.5140   -0.3230 O   0  0  0  0  0  0  0  0  0  0  0  0
    6.8180    0.7800   -0.3940 C   0  0  0  0  0  0  0  0  0  0  0  0
    6.6250   -0.6350   -0.7440 C   0  0  0  0  0  0  0  0  0  0  0  0
    6.3880   -0.9560   -2.0640 C   0  0  0  0  0  0  0  0  0  0  0  0
    6.2010   -2.2580   -2.4730 C   0  0  0  0  0  0  0  0  0  0  0  0
    6.2570   -3.2700   -1.5110 C   0  0  0  0  0  0  0  0  0  0  0  0
    6.4920   -2.9670   -0.2000 C   0  0  0  0  0  0  0  0  0  0  0  0
    6.6750   -1.6720    0.1940 C   0  0  0  0  0  0  0  0  0  0  0  0
    1.0800    1.2470    0.9180 C   0  0  0  0  0  0  0  0  0  0  0  0
    0.9470    1.3200   -0.3200 O   0  0  0  0  0  0  0  0  0  0  0  0
   -0.0260    0.8440    1.7010 N   0  0  0  0  0  0  0  0  0  0  0  0
   -1.3200    0.5080    1.1500 C   0  0  0  0  0  0  0  0  0  0  0  0
   -1.8940    1.9150    0.3290 P   0  0  0  0  0  0  0  0  0  0  0  0
   -1.5530    1.5030   -1.1160 O   0  0  0  0  0  0  0  0  0  0  0  0
   -0.8550    3.2180    0.1490 O   0  0  0  0  0  0  0  0  0  0  0  0
   -3.4820    2.0740   -0.1480 O   0  0  0  0  0  0  0  0  0  0  0  0
   -3.9940    0.7900   -0.2920 C   0  0  1  0  0  0  0  0  0  0  0  0
   -5.2140    0.5940    0.5500 C   0  0  0  0  0  0  0  0  0  0  0  0
   -5.7410   -0.7680    0.3810 C   0  0  0  0  0  0  0  0  0  0  0  0
   -5.2400   -1.8290    1.1340 C   0  0  0  0  0  0  0  0  0  0  0  0
   -5.7500   -3.0990    0.9950 C   0  0  0  0  0  0  0  0  0  0  0  0
   -6.7670   -3.3900    0.1200 C   0  0  0  0  0  0  0  0  0  0  0  0
   -7.2660   -2.3450   -0.6270 C   0  0  0  0  0  0  0  0  0  0  0  0
   -6.7650   -1.0740   -0.4970 C   0  0  0  0  0  0  0  0  0  0  0  0
   -4.3270    0.6140   -1.7150 C   0  0  0  0  0  0  0  0  0  0  0  0
   -4.1990    1.5850   -2.5020 O   0  0  0  0  0  0  0  0  0  0  0  0
   -4.7810   -0.5680   -2.2760 O   0  0  0  0  0  0  0  0  0  0  0  0
  2  1  1  1
  2  3  1  0
  2 14  1  0
  3  4  1  0
  4  5  2  0
  4  6  1  0
  6  7  1  0
  7  8  1  0
  8  9  2  0
  8 13  1  0
  9 10  1  0
 10 11  2  0
 11 12  1  0
 12 13  2  0
 14 15  2  0
 14 16  1  0
 16 17  1  0
 17 18  1  0
 18 19  1  0
 18 20  1  0
 18 21  1  0
 21 22  1  0
 22 23  1  1
 22 30  1  0
 23 24  1  0
 24 25  2  0
 24 29  1  0
 25 26  1  0
 26 27  2  0
 27 28  1  0
 28 29  2  0
 30 31  2  0
 30 32  1  0
M  END
