
     RDKit          3D

 32 34  0  0  0  0  0  0  0  0999 V2000
   -5.3180   -3.4230   -1.5790 O   0  0  0  0  0  0  0  0  0  0  0  0
   -5.2030   -4.0570   -0.4880 C   0  0  0  0  0  0  0  0  0  0  0  0
   -6.0390   -5.1200   -0.2420 O   0  0  0  0  0  0  0  0  0  0  0  0
   -4.2290   -3.6810    0.4730 N   0  0  0  0  0  0  0  0  0  0  0  0
   -3.3930   -2.5630    0.1490 C   0  0  0  0  0  0  0  0  0  0  0  0
   -3.5360   -1.9660   -0.9350 O   0  0  0  0  0  0  0  0  0  0  0  0
   -2.3520   -2.1060    1.0970 C   0  0  1  0  0  0  0  0  0  0  0  0
   -1.4830   -3.2210    1.4230 C   0  0  0  0  0  0  0  0  0  0  0  0
   -0.1680   -3.2310    1.2880 C   0  0  0  0  0  0  0  0  0  0  0  0
    0.5250   -2.0940    0.7790 N   0  0  0  0  0  0  0  0  0  0  0  0
    1.9150   -2.0910    0.6640 C   0  0  0  0  0  0  0  0  0  0  0  0
    2.6550   -1.2100    1.3720 C   0  0  0  0  0  0  0  0  0  0  0  0
    4.0030   -1.1420    1.3220 N   0  0  0  0  0  0  0  0  0  0  0  0
    4.8640   -0.3330    1.0080 C   0  0  0  0  0  0  0  0  0  0  0  0
    4.8180    1.0280    0.5070 C   0  0  0  0  0  0  0  0  0  0  0  0
    3.6600    1.6170    0.3100 C   0  0  0  0  0  0  0  0  0  0  0  0
    3.5640    2.9820   -0.1910 C   0  0  0  0  0  0  0  0  0  0  0  0
    4.8060    3.5640   -0.4270 O   0  0  0  0  0  0  0  0  0  0  0  0
    6.0240    2.9580   -0.2260 C   0  0  0  0  0  0  0  0  0  0  0  0
    6.0910    1.7200    0.2290 C   0  0  0  0  0  0  0  0  0  0  0  0
   -0.2780   -0.9590    0.4060 C   0  0  0  0  0  0  0  0  0  0  0  0
    0.3700    0.0260   -0.0090 O   0  0  0  0  0  0  0  0  0  0  0  0
   -1.6950   -0.9420    0.5060 N   0  0  0  0  0  0  0  0  0  0  0  0
   -2.5280    0.1320    0.1970 C   0  0  0  0  0  0  0  0  0  0  0  0
   -3.7450    0.0720    0.6990 O   0  0  0  0  0  0  0  0  0  0  0  0
   -2.2330    1.2840   -0.5910 C   0  0  0  0  0  0  0  0  0  0  0  0
   -1.3160    1.3640   -1.6080 C   0  0  0  0  0  0  0  0  0  0  0  0
   -1.0250    2.5380   -2.2450 C   0  0  0  0  0  0  0  0  0  0  0  0
   -1.6490    3.7180   -1.8970 C   0  0  0  0  0  0  0  0  0  0  0  0
   -1.3550    4.9130   -2.5430 O   0  0  0  0  0  0  0  0  0  0  0  0
   -2.5850    3.6430   -0.8660 C   0  0  0  0  0  0  0  0  0  0  0  0
   -2.8790    2.4750   -0.2250 C   0  0  0  0  0  0  0  0  0  0  0  0
  1  2  2  0
  2  3  1  0
  2  4  1  0
  4  5  1  0
  5  6  2  0
  7  5  1  6
  7  8  1  0
  7 23  1  0
  8  9  2  0
  9 10  1  0
 10 11  1  0
 10 21  1  0
 11 12  2  3
 12 13  1  0
 13 14  2  3
 14 15  1  0
 15 16  2  0
 15 20  1  0
 16 17  1  0
 17 18  1  0
 18 19  1  0
 19 20  2  0
 21 22  2  0
 21 23  1  0
 23 24  1  0
 24 25  2  0
 24 26  1  0
 26 27  2  0
 26 32  1  0
 27 28  1  0
 28 29  2  0
 29 30  1  0
 29 31  1  0
 31 32  2  0
M  END
