
     RDKit          3D

 32 34  0  0  0  0  0  0  0  0999 V2000
   -0.8880    4.3050   -1.3430 C   0  0  0  0  0  0  0  0  0  0  0  0
   -1.6550    3.0740   -1.7050 C   0  0  0  0  0  0  0  0  0  0  0  0
   -1.1420    1.9200   -1.1290 O   0  0  0  0  0  0  0  0  0  0  0  0
   -1.1240    1.9300    0.2370 C   0  0  2  0  0  0  0  0  0  0  0  0
    0.2410    1.9540    0.8710 C   0  0  0  0  0  0  0  0  0  0  0  0
    1.3160    1.7890    0.0580 O   0  0  0  0  0  0  0  0  0  0  0  0
    1.9100    0.4960    0.2430 C   0  0  2  0  0  0  0  0  0  0  0  0
    3.1580    0.3940   -0.5360 C   0  0  0  0  0  0  0  0  0  0  0  0
    3.5250    1.4020   -1.2310 O   0  0  0  0  0  0  0  0  0  0  0  0
    3.9760   -0.7520   -0.5640 N   0  0  0  0  0  0  0  0  0  0  0  0
    5.2030   -0.8400   -1.3360 C   0  0  0  0  0  0  0  0  0  0  0  0
    6.1750    0.2100   -0.8940 C   0  0  0  0  0  0  0  0  0  0  0  0
    6.4840   -0.0090    0.5730 C   0  0  0  0  0  0  0  0  0  0  0  0
    5.3520    0.0770    1.3560 O   0  0  0  0  0  0  0  0  0  0  0  0
    0.8700   -0.5870    0.0090 C   0  0  0  0  0  0  0  0  0  0  0  0
    0.2960   -1.3290    1.0270 C   0  0  0  0  0  0  0  0  0  0  0  0
   -0.7290   -2.2870    0.7840 C   0  0  0  0  0  0  0  0  0  0  0  0
   -1.2420   -2.5700   -0.4610 C   0  0  0  0  0  0  0  0  0  0  0  0
   -0.6460   -1.8140   -1.4520 C   0  0  0  0  0  0  0  0  0  0  0  0
    0.3740   -0.8530   -1.2460 C   0  0  0  0  0  0  0  0  0  0  0  0
   -2.3510   -3.5480   -0.7010 C   0  0  0  0  0  0  0  0  0  0  0  0
   -2.1730   -4.8620   -0.9340 O   0  0  0  0  0  0  0  0  0  0  0  0
   -3.7320   -3.1670   -0.7100 N   0  0  0  0  0  0  0  0  0  0  0  0
   -4.6220   -2.5600    0.1850 C   0  0  0  0  0  0  0  0  0  0  0  0
   -4.5870   -1.5060    0.9610 C   0  0  0  0  0  0  0  0  0  0  0  0
   -5.8660   -1.2430    1.7940 C   0  0  0  0  0  0  0  0  0  0  0  0
   -6.4390   -0.0270    1.5110 O   0  0  0  0  0  0  0  0  0  0  0  0
   -3.5530   -0.5230    1.2050 C   0  0  0  0  0  0  0  0  0  0  0  0
   -3.0490   -0.1320    2.4340 N   0  0  0  0  0  0  0  0  0  0  0  0
   -2.1420    0.7710    2.2250 N   0  0  0  0  0  0  0  0  0  0  0  0
   -2.0450    0.9750    0.8890 C   0  0  0  0  0  0  0  0  0  0  0  0
   -2.8830    0.2020    0.3280 O   0  0  0  0  0  0  0  0  0  0  0  0
  1  2  1  0
  2  3  1  0
  4  3  1  6
  4  5  1  0
  4 31  1  0
  5  6  1  0
  6  7  1  0
  7  8  1  6
  7 15  1  0
  8  9  2  0
  8 10  1  0
 10 11  1  0
 11 12  1  0
 12 13  1  0
 13 14  1  0
 15 16  2  0
 15 20  1  0
 16 17  1  0
 17 18  2  0
 18 19  1  0
 18 21  1  0
 19 20  2  0
 21 22  2  0
 21 23  1  0
 23 24  1  0
 24 25  2  0
 25 26  1  0
 25 28  1  0
 26 27  1  0
 28 29  2  0
 28 32  1  0
 29 30  1  0
 30 31  2  0
 31 32  1  0
M  END
