
     RDKit          3D

 27 29  0  0  0  0  0  0  0  0999 V2000
    9.1450    0.0020   -1.5330 O   0  0  0  0  0  0  0  0  0  0  0  0
    7.8560   -0.7340   -1.1930 S   0  0  0  0  0  0  0  0  0  0  0  0
    7.0890    0.1100    0.0820 O   0  0  0  0  0  0  0  0  0  0  0  0
    5.7910   -0.0590    0.4720 C   0  0  0  0  0  0  0  0  0  0  0  0
    5.5080   -0.9950    1.4330 C   0  0  0  0  0  0  0  0  0  0  0  0
    4.2070   -1.1940    1.8530 C   0  0  0  0  0  0  0  0  0  0  0  0
    3.1950   -0.4560    1.3110 C   0  0  0  0  0  0  0  0  0  0  0  0
    1.8920   -0.6610    1.7370 O   0  0  0  0  0  0  0  0  0  0  0  0
    3.4280    0.5130    0.3280 C   0  0  0  0  0  0  0  0  0  0  0  0
    2.3350    1.2470   -0.1970 N   0  0  0  0  0  0  0  0  0  0  0  0
    2.3720    2.2510   -1.1790 C   0  0  0  0  0  0  0  0  0  0  0  0
    3.4680    2.5840   -1.6850 O   0  0  0  0  0  0  0  0  0  0  0  0
    1.1610    2.9710   -1.6770 C   0  0  0  0  0  0  0  0  0  0  0  0
   -0.0460    2.4940   -1.1850 O   0  0  0  0  0  0  0  0  0  0  0  0
   -0.5840    1.2340   -1.3880 C   0  0  0  0  0  0  0  0  0  0  0  0
    0.0760    0.4310   -2.0960 O   0  0  0  0  0  0  0  0  0  0  0  0
   -1.8820    0.8480   -0.7990 C   0  0  0  0  0  0  0  0  0  0  0  0
   -2.5540    1.7720   -0.0360 C   0  0  0  0  0  0  0  0  0  0  0  0
   -3.7660    1.4320    0.5230 C   0  0  0  0  0  0  0  0  0  0  0  0
   -4.3110    0.1890    0.3300 C   0  0  0  0  0  0  0  0  0  0  0  0
   -3.6400   -0.7460   -0.4370 C   0  0  0  0  0  0  0  0  0  0  0  0
   -2.4270   -0.3900   -0.9890 C   0  0  0  0  0  0  0  0  0  0  0  0
   -4.2400   -2.0680   -0.6310 C   0  0  0  0  0  0  0  0  0  0  0  0
   -4.9410   -2.6290    0.5570 C   0  0  0  0  0  0  0  0  0  0  0  0
   -5.5460   -1.6260    1.4780 C   0  0  0  0  0  0  0  0  0  0  0  0
   -5.6080   -0.2280    0.9070 C   0  0  0  0  0  0  0  0  0  0  0  0
    4.7330    0.6700   -0.0520 C   0  0  0  0  0  0  0  0  0  0  0  0
  1  2  2  0
  2  3  1  0
  3  4  1  0
  4  5  2  0
  4 27  1  0
  5  6  1  0
  6  7  2  0
  7  8  1  0
  7  9  1  0
  9 10  1  0
  9 27  2  0
 10 11  1  0
 11 12  2  0
 11 13  1  0
 13 14  1  0
 14 15  1  0
 15 16  2  0
 15 17  1  0
 17 18  2  0
 17 22  1  0
 18 19  1  0
 19 20  2  0
 20 21  1  0
 20 26  1  0
 21 22  2  0
 21 23  1  0
 23 24  1  0
 24 25  1  0
 25 26  1  0
M  END
