
     RDKit          3D

 27 29  0  0  0  0  0  0  0  0999 V2000
    8.5800   -0.5620   -0.6120 C   0  0  0  0  0  0  0  0  0  0  0  0
    8.1650    0.4460    0.2130 O   0  0  0  0  0  0  0  0  0  0  0  0
    6.8070    0.5010    0.3290 C   0  0  0  0  0  0  0  0  0  0  0  0
    6.1380    0.7670   -0.9710 C   0  0  0  0  0  0  0  0  0  0  0  0
    4.6680    0.8230   -0.7080 N   0  0  0  0  0  0  0  0  0  0  0  0
    4.0300    2.0370   -0.3890 C   0  0  0  0  0  0  0  0  0  0  0  0
    4.5010    3.1940   -0.3900 O   0  0  0  0  0  0  0  0  0  0  0  0
    2.3540    1.6150    0.0310 S   0  0  0  0  0  0  0  0  0  0  0  0
    2.4740   -0.1220   -0.4220 C   0  0  0  0  0  0  0  0  0  0  0  0
    1.4840   -1.0120   -0.4270 C   0  0  0  0  0  0  0  0  0  0  0  0
    0.1390   -0.5690   -0.0240 C   0  0  0  0  0  0  0  0  0  0  0  0
   -0.4260    0.6240   -0.3730 C   0  0  0  0  0  0  0  0  0  0  0  0
   -1.6790    0.6430    0.2080 C   0  0  0  0  0  0  0  0  0  0  0  0
   -1.8230   -0.5360    0.8830 C   0  0  0  0  0  0  0  0  0  0  0  0
   -2.9960   -0.9930    1.6730 C   0  0  2  0  0  0  0  0  0  0  0  0
   -3.1650   -2.3750    1.4560 O   0  0  0  0  0  0  0  0  0  0  0  0
   -4.2620   -0.2920    1.3030 C   0  0  0  0  0  0  0  0  0  0  0  0
   -4.5760   -0.5750   -0.1630 C   0  0  0  0  0  0  0  0  0  0  0  0
   -5.8560    0.1050   -0.4890 C   0  0  0  0  0  0  0  0  0  0  0  0
   -6.9460   -0.5260   -0.9040 C   0  0  0  0  0  0  0  0  0  0  0  0
   -7.9900    0.4870   -1.1160 C   0  0  0  0  0  0  0  0  0  0  0  0
   -9.3000    0.2030   -1.4760 O   0  0  0  0  0  0  0  0  0  0  0  0
   -7.3950    1.6160   -0.8940 C   0  0  0  0  0  0  0  0  0  0  0  0
   -6.1580    1.5240   -0.4280 C   0  0  0  0  0  0  0  0  0  0  0  0
   -0.7010   -1.2400    0.7180 O   0  0  0  0  0  0  0  0  0  0  0  0
    3.8780   -0.3110   -0.7320 C   0  0  0  0  0  0  0  0  0  0  0  0
    4.2960   -1.4980   -1.0050 O   0  0  0  0  0  0  0  0  0  0  0  0
  1  2  1  0
  2  3  1  0
  3  4  1  0
  4  5  1  0
  5  6  1  0
  5 26  1  0
  6  7  2  0
  6  8  1  0
  8  9  1  0
  9 10  2  3
  9 26  1  0
 10 11  1  0
 11 12  2  0
 11 25  1  0
 12 13  1  0
 13 14  2  0
 14 15  1  0
 14 25  1  0
 15 16  1  6
 15 17  1  0
 17 18  1  0
 18 19  1  0
 19 20  2  0
 19 24  1  0
 20 21  1  0
 21 22  1  0
 21 23  2  0
 23 24  2  0
 26 27  2  0
M  END
