
     RDKit          3D

 27 29  0  0  0  0  0  0  0  0999 V2000
   -4.3690   -1.3210   -3.3650 C   0  0  0  0  0  0  0  0  0  0  0  0
   -3.9630   -1.1570   -2.0270 O   0  0  0  0  0  0  0  0  0  0  0  0
   -4.2700    0.0070   -1.3330 C   0  0  0  0  0  0  0  0  0  0  0  0
   -4.9760    1.0470   -1.9040 C   0  0  0  0  0  0  0  0  0  0  0  0
   -5.2670    2.1910   -1.1910 C   0  0  0  0  0  0  0  0  0  0  0  0
   -4.8380    2.2790    0.1110 C   0  0  0  0  0  0  0  0  0  0  0  0
   -5.0980    3.4000    0.8790 O   0  0  0  0  0  0  0  0  0  0  0  0
   -4.1260    1.2360    0.6950 C   0  0  0  0  0  0  0  0  0  0  0  0
   -3.6870    1.3130    2.0090 O   0  0  0  0  0  0  0  0  0  0  0  0
   -4.5730    0.8270    3.0050 C   0  0  0  0  0  0  0  0  0  0  0  0
   -3.8390    0.0960   -0.0240 C   0  0  0  0  0  0  0  0  0  0  0  0
   -3.1310   -0.9510    0.5450 O   0  0  0  0  0  0  0  0  0  0  0  0
   -1.7340   -0.9800    0.4560 C   0  0  0  0  0  0  0  0  0  0  0  0
   -1.1940   -0.0230   -0.1550 O   0  0  0  0  0  0  0  0  0  0  0  0
   -0.9490   -2.0990    1.0630 C   0  0  0  0  0  0  0  0  0  0  0  0
    0.4550   -1.8170    0.7890 N   0  0  0  0  0  0  0  0  0  0  0  0
    1.0790   -0.6360    1.2590 C   0  0  0  0  0  0  0  0  0  0  0  0
    0.4110    0.1810    1.9220 O   0  0  0  0  0  0  0  0  0  0  0  0
    2.4530   -0.4020    0.9690 C   0  0  0  0  0  0  0  0  0  0  0  0
    3.3670   -1.1640    0.2610 C   0  0  0  0  0  0  0  0  0  0  0  0
    4.6050   -0.7490    0.1140 C   0  0  0  0  0  0  0  0  0  0  0  0
    4.9540    0.5040    0.7080 C   0  0  0  0  0  0  0  0  0  0  0  0
    3.4470    0.9910    1.4440 S   0  0  0  0  0  0  0  0  0  0  0  0
    6.3290    1.0440    0.5880 C   0  0  0  0  0  0  0  0  0  0  0  0
    6.9060    0.9130   -0.7880 C   0  0  0  0  0  0  0  0  0  0  0  0
    6.3930   -0.2910   -1.5030 C   0  0  0  0  0  0  0  0  0  0  0  0
    5.8160   -1.3440   -0.5920 C   0  0  0  0  0  0  0  0  0  0  0  0
  1  2  1  0
  2  3  1  0
  3  4  2  0
  3 11  1  0
  4  5  1  0
  5  6  2  0
  6  7  1  0
  6  8  1  0
  8  9  1  0
  8 11  2  0
  9 10  1  0
 11 12  1  0
 12 13  1  0
 13 14  2  0
 13 15  1  0
 15 16  1  0
 16 17  1  0
 17 18  2  0
 17 19  1  0
 19 20  2  0
 19 23  1  0
 20 21  1  0
 21 22  2  0
 21 27  1  0
 22 23  1  0
 22 24  1  0
 24 25  1  0
 25 26  1  0
 26 27  1  0
M  END
