
     RDKit          3D

 27 29  0  0  0  0  0  0  0  0999 V2000
    5.6450   -2.8030   -0.0180 C   0  0  0  0  0  0  0  0  0  0  0  0
    5.2450   -1.8680    1.1230 C   0  0  0  0  0  0  0  0  0  0  0  0
    4.1040   -1.1150    0.7180 O   0  0  0  0  0  0  0  0  0  0  0  0
    2.9370   -1.7660    0.3810 C   0  0  0  0  0  0  0  0  0  0  0  0
    2.9410   -3.0230    0.4510 O   0  0  0  0  0  0  0  0  0  0  0  0
    1.7770   -1.0220   -0.0300 C   0  0  0  0  0  0  0  0  0  0  0  0
    0.5780   -1.6450   -0.3780 C   0  0  0  0  0  0  0  0  0  0  0  0
   -0.5170   -0.9130   -0.7680 C   0  0  0  0  0  0  0  0  0  0  0  0
   -0.4200    0.4570   -0.8110 C   0  0  0  0  0  0  0  0  0  0  0  0
   -1.5050    1.2160   -1.1990 O   0  0  0  0  0  0  0  0  0  0  0  0
   -2.7500    0.7090   -1.5660 C   0  0  0  0  0  0  0  0  0  0  0  0
   -3.4410   -0.0680   -0.5160 C   0  0  0  0  0  0  0  0  0  0  0  0
   -3.2540    0.1790    0.8300 C   0  0  0  0  0  0  0  0  0  0  0  0
   -3.9130   -0.5630    1.8070 C   0  0  0  0  0  0  0  0  0  0  0  0
   -3.7340   -0.3240    3.1660 O   0  0  0  0  0  0  0  0  0  0  0  0
   -4.7810   -1.5750    1.4620 C   0  0  0  0  0  0  0  0  0  0  0  0
   -4.9730   -1.8270    0.1210 C   0  0  0  0  0  0  0  0  0  0  0  0
   -5.8590   -2.8610   -0.2030 O   0  0  0  0  0  0  0  0  0  0  0  0
   -4.3170   -1.0900   -0.8390 C   0  0  0  0  0  0  0  0  0  0  0  0
    0.7530    1.1180   -0.4730 C   0  0  0  0  0  0  0  0  0  0  0  0
    0.7960    2.5590   -0.5320 N   0  0  0  0  0  0  0  0  0  0  0  0
   -0.3360    3.3280   -0.0390 C   0  0  0  0  0  0  0  0  0  0  0  0
    0.4720    4.8810    0.4550 S   0  0  0  0  0  0  0  0  0  0  0  0
    2.1160    4.5630   -0.2500 C   0  0  0  0  0  0  0  0  0  0  0  0
    1.8340    3.3320   -1.0350 C   0  0  0  0  0  0  0  0  0  0  0  0
    2.5230    3.0620   -2.0790 O   0  0  0  0  0  0  0  0  0  0  0  0
    1.8170    0.3370   -0.0910 C   0  0  0  0  0  0  0  0  0  0  0  0
  1  2  1  0
  2  3  1  0
  3  4  1  0
  4  5  2  0
  4  6  1  0
  6  7  2  0
  6 27  1  0
  7  8  1  0
  8  9  2  0
  9 10  1  0
  9 20  1  0
 10 11  1  0
 11 12  1  0
 12 13  2  0
 12 19  1  0
 13 14  1  0
 14 15  1  0
 14 16  2  0
 16 17  1  0
 17 18  1  0
 17 19  2  0
 20 21  1  0
 20 27  2  0
 21 22  1  0
 21 25  1  0
 22 23  1  0
 23 24  1  0
 24 25  1  0
 25 26  2  0
M  END
