
     RDKit          3D

 27 29  0  0  0  0  0  0  0  0999 V2000
   -6.3020    0.6490    1.0990 C   0  0  0  0  0  0  0  0  0  0  0  0
   -6.4960   -0.4450    0.1040 C   0  0  1  0  0  0  0  0  0  0  0  0
   -5.8310   -0.1160   -1.2050 C   0  0  0  0  0  0  0  0  0  0  0  0
   -4.4120    0.2110   -1.1720 C   0  0  0  0  0  0  0  0  0  0  0  0
   -3.7120   -0.4820    0.0010 C   0  0  0  0  0  0  0  0  0  0  0  0
   -4.3980   -1.3560    0.7410 C   0  0  0  0  0  0  0  0  0  0  0  0
   -3.2590   -1.9100    1.9490 S   0  0  0  0  0  0  0  0  0  0  0  0
   -1.8960   -0.9260    1.3960 C   0  0  0  0  0  0  0  0  0  0  0  0
   -0.5930   -0.9000    1.9780 N   0  0  0  0  0  0  0  0  0  0  0  0
   -2.4040   -0.2350    0.3170 C   0  0  0  0  0  0  0  0  0  0  0  0
   -1.4950    0.7070   -0.4000 C   0  0  0  0  0  0  0  0  0  0  0  0
   -1.8720    1.3730   -1.3860 O   0  0  0  0  0  0  0  0  0  0  0  0
   -0.1920    0.8790    0.0050 O   0  0  0  0  0  0  0  0  0  0  0  0
    0.7000    1.7590   -0.6450 C   0  0  0  0  0  0  0  0  0  0  0  0
    2.0190    1.6780    0.0740 C   0  0  0  0  0  0  0  0  0  0  0  0
    2.1660    0.9190    1.0660 O   0  0  0  0  0  0  0  0  0  0  0  0
    3.1040    2.4230   -0.3220 O   0  0  0  0  0  0  0  0  0  0  0  0
    4.3510    2.3590    0.3430 C   0  0  0  0  0  0  0  0  0  0  0  0
    4.8880    0.9510    0.2900 C   0  0  0  0  0  0  0  0  0  0  0  0
    4.2440    0.0300   -0.2890 O   0  0  0  0  0  0  0  0  0  0  0  0
    6.0880    0.6190    0.8630 O   0  0  0  0  0  0  0  0  0  0  0  0
    6.6260   -0.7060    0.8300 C   0  0  0  0  0  0  0  0  0  0  0  0
    6.8350   -1.1660   -0.5630 C   0  0  0  0  0  0  0  0  0  0  0  0
    6.4470   -2.1240   -1.3810 C   0  0  0  0  0  0  0  0  0  0  0  0
    7.2680   -1.5930   -2.4590 C   0  0  0  0  0  0  0  0  0  0  0  0
    7.6610   -0.6390   -1.6600 C   0  0  0  0  0  0  0  0  0  0  0  0
   -5.8350   -1.7440    0.5450 C   0  0  0  0  0  0  0  0  0  0  0  0
  2  1  1  1
  2  3  1  0
  2 27  1  0
  3  4  1  0
  4  5  1  0
  5  6  2  0
  5 10  1  0
  6  7  1  0
  6 27  1  0
  7  8  1  0
  8  9  1  0
  8 10  2  0
 10 11  1  0
 11 12  2  0
 11 13  1  0
 13 14  1  0
 14 15  1  0
 15 16  2  0
 15 17  1  0
 17 18  1  0
 18 19  1  0
 19 20  2  0
 19 21  1  0
 21 22  1  0
 22 23  1  0
 23 24  2  0
 23 26  1  0
 24 25  1  0
 25 26  2  0
M  END
