
     RDKit          3D

 27 29  0  0  0  0  0  0  0  0999 V2000
   -3.7540   -0.7140   -2.4350 O   0  0  0  0  0  0  0  0  0  0  0  0
   -3.2790    0.4380   -2.3180 C   0  0  0  0  0  0  0  0  0  0  0  0
   -2.7450    1.0010   -1.0890 C   0  0  0  0  0  0  0  0  0  0  0  0
   -2.6830    0.0730    0.0620 C   0  0  1  0  0  0  0  0  0  0  0  0
   -1.6800   -1.3500   -0.1320 S   0  0  1  0  0  0  0  0  0  0  0  0
   -1.6290   -2.1560    1.1750 O   0  0  0  0  0  0  0  0  0  0  0  0
   -2.2310   -2.2490   -1.1890 O   0  0  0  0  0  0  0  0  0  0  0  0
   -0.0180   -0.9740   -0.4750 C   0  0  0  0  0  0  0  0  0  0  0  0
    0.3760   -0.8020   -1.7780 C   0  0  0  0  0  0  0  0  0  0  0  0
    1.6940   -0.5010   -2.1120 C   0  0  0  0  0  0  0  0  0  0  0  0
    2.6310   -0.3730   -1.1000 C   0  0  0  0  0  0  0  0  0  0  0  0
    3.9530   -0.0710   -1.4390 O   0  0  0  0  0  0  0  0  0  0  0  0
    4.8750    0.0540   -0.4150 C   0  0  0  0  0  0  0  0  0  0  0  0
    5.5970   -1.0210    0.0430 C   0  0  0  0  0  0  0  0  0  0  0  0
    6.5080   -0.8460    1.0700 C   0  0  0  0  0  0  0  0  0  0  0  0
    6.6760    0.4130    1.6200 C   0  0  0  0  0  0  0  0  0  0  0  0
    5.9570    1.4730    1.1620 C   0  0  0  0  0  0  0  0  0  0  0  0
    5.0500    1.2990    0.1390 C   0  0  0  0  0  0  0  0  0  0  0  0
    2.2330   -0.5460    0.2110 C   0  0  0  0  0  0  0  0  0  0  0  0
    0.9020   -0.8490    0.5300 C   0  0  0  0  0  0  0  0  0  0  0  0
   -2.1190    0.8290    1.2900 C   0  0  0  0  0  0  0  0  0  0  0  0
   -2.9000    0.5330    2.5270 C   0  0  0  0  0  0  0  0  0  0  0  0
   -3.2960   -0.7960    2.6550 O   0  0  0  0  0  0  0  0  0  0  0  0
   -4.1780   -1.1750    1.6590 C   0  0  0  0  0  0  0  0  0  0  0  0
   -4.1040   -0.2710    0.4530 C   0  0  0  0  0  0  0  0  0  0  0  0
   -3.3050    1.2010   -3.5490 N   0  0  0  0  0  0  0  0  0  0  0  0
   -3.8020    0.6770   -4.6900 O   0  0  0  0  0  0  0  0  0  0  0  0
  1  2  2  0
  2  3  1  0
  2 26  1  0
  4  3  1  6
  4  5  1  0
  4 21  1  0
  4 25  1  0
  5  6  2  0
  5  7  2  0
  5  8  1  6
  8  9  2  0
  8 20  1  0
  9 10  1  0
 10 11  2  0
 11 12  1  0
 11 19  1  0
 12 13  1  0
 13 14  2  0
 13 18  1  0
 14 15  1  0
 15 16  2  0
 16 17  1  0
 17 18  2  0
 19 20  2  0
 21 22  1  0
 22 23  1  0
 23 24  1  0
 24 25  1  0
 26 27  1  0
M  END
