
     RDKit          3D

 11 11  0  0  0  0  0  0  0  0999 V2000
   -1.7710   -1.7240    0.7220 O   0  0  0  0  0  0  0  0  0  0  0  0
   -1.9350   -0.8450   -0.3390 C   0  0  0  0  0  0  0  0  0  0  0  0
   -0.6840   -0.0010   -0.5780 C   0  0  2  0  0  0  0  0  0  0  0  0
   -0.9020    0.8700   -1.6600 O   0  0  0  0  0  0  0  0  0  0  0  0
    0.4740   -0.8670   -0.9600 C   0  0  0  0  0  0  0  0  0  0  0  0
    1.6420   -0.0950   -0.9410 O   0  0  0  0  0  0  0  0  0  0  0  0
    1.9320    0.1450    0.4020 C   0  0  2  0  0  0  0  0  0  0  0  0
    1.8290   -1.0660    1.0760 O   0  0  0  0  0  0  0  0  0  0  0  0
    0.9720    1.1540    0.9280 C   0  0  0  0  0  0  0  0  0  0  0  0
   -0.4710    0.8490    0.6290 C   0  0  1  0  0  0  0  0  0  0  0  0
   -1.2050    2.0440    0.4500 O   0  0  0  0  0  0  0  0  0  0  0  0
  1  2  1  0
  2  3  1  0
  3  4  1  6
  3  5  1  0
  3 10  1  0
  5  6  1  0
  6  7  1  0
  7  8  1  1
  7  9  1  0
  9 10  1  0
 10 11  1  6
M  END
