
     RDKit          3D

 11 11  0  0  0  0  0  0  0  0999 V2000
   -1.5400   -2.0930   -0.7390 O   0  0  0  0  0  0  0  0  0  0  0  0
   -1.0580   -0.8490   -1.1680 C   0  0  0  0  0  0  0  0  0  0  0  0
   -0.8800    0.0000    0.0790 C   0  0  1  0  0  0  0  0  0  0  0  0
   -2.1110    0.1310    0.7140 O   0  0  0  0  0  0  0  0  0  0  0  0
    0.1170   -0.7060    0.9600 C   0  0  0  0  0  0  0  0  0  0  0  0
    1.5350   -0.4110    0.6360 C   0  0  1  0  0  0  0  0  0  0  0  0
    2.1000   -1.4450   -0.1190 O   0  0  0  0  0  0  0  0  0  0  0  0
    1.7850    0.8740   -0.0590 C   0  0  0  0  0  0  0  0  0  0  0  0
    0.8010    1.2200   -0.9880 O   0  0  0  0  0  0  0  0  0  0  0  0
   -0.3790    1.3770   -0.2470 C   0  0  1  0  0  0  0  0  0  0  0  0
   -1.2990    2.1770   -0.8750 O   0  0  0  0  0  0  0  0  0  0  0  0
  1  2  1  0
  2  3  1  0
  3  4  1  1
  3  5  1  0
  3 10  1  0
  5  6  1  0
  6  7  1  6
  6  8  1  0
  8  9  1  0
  9 10  1  0
 10 11  1  6
M  END
