
     RDKit          3D

 12 12  0  0  0  0  0  0  0  0999 V2000
    2.4790    1.0350   -1.4890 O   0  0  0  0  0  0  0  0  0  0  0  0
    2.3770    0.0430   -0.7110 C   0  0  0  0  0  0  0  0  0  0  0  0
    3.4320   -0.3260    0.1190 O   0  0  0  0  0  0  0  0  0  0  0  0
    1.0950   -0.7470   -0.6840 C   0  0  1  0  0  0  0  0  0  0  0  0
    0.5250   -0.5610    0.7090 C   0  0  0  0  0  0  0  0  0  0  0  0
   -0.6450    0.3590    0.4080 C   0  0  2  0  0  0  0  0  0  0  0  0
   -0.1520    1.6250    0.2460 O   0  0  0  0  0  0  0  0  0  0  0  0
   -1.7300    0.2600    1.4380 C   0  0  0  0  0  0  0  0  0  0  0  0
   -2.7720    1.0950    1.0230 O   0  0  0  0  0  0  0  0  0  0  0  0
   -1.0550   -0.2140   -0.9320 C   0  0  2  0  0  0  0  0  0  0  0  0
   -1.4190   -1.5540   -0.8300 O   0  0  0  0  0  0  0  0  0  0  0  0
    0.2050   -0.2060   -1.5750 O   0  0  0  0  0  0  0  0  0  0  0  0
  1  2  2  0
  2  3  1  0
  4  2  1  1
  4  5  1  0
  4 12  1  0
  5  6  1  0
  6  7  1  6
  6  8  1  0
  6 10  1  0
  8  9  1  0
 10 11  1  1
 10 12  1  0
M  END
